!********+*********+*********+*********+*********+*********+*********+*
!*   This file determines the adjustable run-time parameters for the  *
!* Generalized Ocean Layer Dynamics (MOM) ocean model.  Where        *
!* appropriate, MKS units are used.                                   *
!********+*********+*********+*********+*********+*********+*********+*
! >>> DOME test case <<<

!  Specify properties of the physical domain.
ROTATION = "beta"               !   Rotation approximation (2omegasinlat,
                                !  beta or USER).
F_0 = 1.0e-4                    !   Reference Coriolis value for betaplane
                                !  option in s-1.
BETA = 0.                       !   df/dy term for betaplane option in m-1 s-1.
                                !  Set to 0. for f-plane.
GRID_CONFIG = "cartesian"       !    Method for defining horizontal grid
                                !  = file|cartesian|spherical|mercator
                                !  file - read grid from file "GRID_FILE"
                                !  cartesian - a Cartesian grid
                                !  spherical - a spherical grid
                                !  mercator  - a mercator grid
TOPO_CONFIG = "DOME"            !   Method for defining topography
                                !  file - read topographic information from file
                                !  (TOPO_FILE).
                                !  flat - flat bottom set to MAXIMUM_DEPTH.
                                !  bowl - bowl like basin using MAXIMUM_DEPTH and
                                !  MINIMUM_DEPTH.
                                !  spoon - similar to bowl except that southern
                                !  face of the "bowl" is open.
                                !  DOME - sill-overflow test case basin.
                                !  USER - user defined
MAXIMUM_DEPTH = 3600.0          !    The maximum depth of the ocean in m.
MINIMUM_DEPTH = 1.0             !    The minimum ocean depth, in m. Anything
                                !  shallower than this depth is assumed to be on
                                !  land, and all fluxes are masked out.
COORD_CONFIG = "layer_ref"      !   How layers are to be defined:
                                !  file - read coordinate information from file
                                !  (COORD_FILE).
                                !  ts_ref - use reference temperature
                                !  and salinity (T_REF and S_REF) to determine
                                !  surface density and GINT calculate internal
                                !  densities.
                                !  gprime - use reference density (RHO_0) for
                                !  surface density and GINT calculate internal
                                !  densities.
                                !  ts_profile - use profiles of temperature
                                !  and salinity (read from COORD_FILE) to determine
                                !  surface density and internal densities.
                                !  USER - user defined routine
DENSITY_RANGE = 2.0             !    The range of potential densities being used,
                                !  in kg m-3.
LIGHTEST_DENSITY = 1030.0       !  The coordinate potential density of the
                                !  lightest layer, in kg m-3.
THICKNESS_CONFIG = "DOME"       !   Method for defining initial layer thicknesses
                                !  file - read thickness information from file
                                !  (THICKNESS_FILE).
                                !  uniform - thickness is distributed uniformly
                                !  and equally between layers.
                                !  search - thickness determined by search
                                !  through initial temperature and salinity space
                                !  of a fixed coordinate data set (not yet
                                !  implemented)
                                !  USER - user defined
VELOCITY_CONFIG = "zero"        !   Method for defining initial layer velocities
                                !  file - read velocity information from file.
                                !  zero - zero velocities everywhere.
                                !  USER - user defined.

!  Specify the numerical domain.
NIGLOBAL = 150                  !   NIGLOBAL and NJGLOBAL are the number of thickness
NJGLOBAL = 70                   !  grid points in the zonal and meridional
                                !  directions of the physical domain.
NK = 25                         !   The number of layers.
NIHALO = 4                      !    NIHALO and NJHALO are the number of halo
NJHALO = 4                      !  points on each side in the x- and y-directions.
                                !  If static memory allocation is used, these
                                !  must match the values of NIHALO_ and NJHALO_
                                !  in MOM_memory.h.
NIPROC_IO = 1                   !    The number of processors used for I/O in the
                                !  x-direction, or 0 to equal NIPROC.  NIPROC_IO
                                !  must be a factor of NIPROC.
NJPROC_IO = 1                   !    The number of processors used for I/O in the
                                !  y-direction, or 0 to equal NJPROC.  NJPROC_IO
                                !  must be a factor of NJPROC.

!  The following parameters only apply if the grid is internally generated.
LENLAT = 700.0                  !    The length of the domain in units defined
LENLON = 1500.0                 !  defined by AXIS_UNITS; by default the units
                                !  are degrees of latitude and longitude.
SOUTHLAT = 0.0                  !  The domain's southern latitude.
AXIS_UNITS = "k"                !    AXIS_UNITS should be defined as "k" for km,
                                !  "m" for m, or undefined for degrees of
                                !  latitude and longitude.  Except on a Cartesian
                                !  grid, only degrees are currently implemented.
REENTRANT_X = False             !    If defined, the domain is zonally reentrant.

DEBUG = False                   !    If true, write out verbose debugging data.
SEND_LOG_TO_STDOUT = False      !    If true write out log information to stdout.

!  Specify the time integration scheme.
DT_FORCING = 86400.0            !    The time step for changing forcing or
                                !  writing certain diagnostics, in s.
DT_THERM = 3600.0               !    The thermodynamic time step, in s.  DT_THERM
                                !  should be an integer multiple of DT and less
                                !  than or equal to DT_FORCING.
DT = 1200.0                     !    The (baroclinic) dynamics time step, in s.
                                !  DT should be an integer fraction of DT_FORCING.
DTBT = -0.9                     !    The barotropic time step, in s. DTBT is only
                                !  used with the split explicit time stepping.
                                !  To set the time step automatically based
                                !  the maximum stable value use 0, or a negative
                                !  value gives the fraction of the stable value.
                                !  The value of DTBT that will actually be used
                                !  is an integer fraction of DT, rounding down.
DT_BT_FILTER = -0.25            !    A time-scale for filtering BT variables,
                                !  in s if positive, or as a fraction of DT if
                                !  negative.
DTBT_RESET_PERIOD = 86400.0     !    The period between recalculations of DTBT
                                !  of DTBT (if DTBT <= 0), in seconds.  If
                                !  DTBT_RESET_PERIOD is negative, DTBT is set
                                !  based only on information available at
                                !  initialization.  If dynamic, DTBT will be set
                                !  at least every forcing time step, and if 0,
                                !  every dynamics time step.
BE = 0.6                        !    BE determines whether the neutral baroclinic
                                !  time stepping scheme (0.5) or a backward Euler
                                !  scheme (1) is used.  BE may be from 0.5 to 1,
                                !  but instability may occur near 0.5.
BEBT = 0.2                      !    BEBT determines whether the barotropic time
                                !  stepping uses the forward-backward time-
                                !  stepping scheme or a backward Euler scheme.
                                !  BEBT is valid in the range from 0 (for a
                                !  forward-backward treatment of nonrotating
                                !  gravity waves) to 1 (for a backward Euler
                                !  treatment). In practice, BEBT must be greater
                                !  than about 0.05.

!  Specify properties of the I/O and length of the integration.
TIMEUNIT = 86400.0              !    The time unit in seconds for the following
                                !  fields.
DAYMAX = 5.0                    !    The final day of the simulation.
ENERGYSAVEDAYS = 0.5            !    The number of days between saves of the
                                !  energies of the run.
ENERGYFILE = "timestats"        !    The file to use to save the energies.
RESTARTFILE = "MOM.res"        !    The name of the restart file.
RESTINT = 110.0                 !    The number of days between saves of the
                                !  restart file.  Use a value that is larger than
                                !  DAYMAX not to save incremental restart files
                                !  within a run.  Use 0 not to save restart files
                                !  at all.
RESTART_CONTROL = 3             !    RESTART_CONTROL determines which restart
                                !  files are written - Add 2 (bit 1) for a time-
                                !  stamped restart file, and odd (bit 0) for a
                                !  non-time-stamped file.  A restart will be
                                !  saved at the end of the run segment for any
                                !  non-negative value.
Z_OUTPUT_GRID_FILE = ""
                                !    The file that specifies the vertical grid
                                !  for depth-space diagnostics.

MAXCPU = 28800.0                !   The maximum amount of cpu time per processor
                                !  for which MOM should run before saving a
                                !  restart file and quitting with a return value
                                !  that indicates that a further execution is
                                !  required to complete the simulation.  If
                                !  automatic restarts are not desired, use a
                                !  negative value for MAXCPU.  MAXCPU has units
                                !  of wall-clock seconds. (i.e. CPU time limit is
                                !  larger by a factor of the number of processors
                                !  used.
INPUTDIR = "INPUT"              !    INPUTDIR is a directory in which NetCDF
                                !  input files might be found.

!  Specify the horizontal (along-isopycnal) viscosity.
LAPLACIAN = False               !    LAPLACIAN is defined to use a Laplacian
                                !  horizontal viscosity.
BIHARMONIC = True               !    BIHARMONIC is defined to use a biharmonic
                                !  horizontal viscosity.  BIHARMONIC may be used
                                !  with LAPLACIAN, and it is automatically
                                !  defined if LAPLACIAN is undefined.
AH = 0.0                        !    The biharmonic horizontal viscosity, in
                                !  m4 s-1.  AH is used if BIHARMONIC is defined.
AH_VEL_SCALE = 0.003            !    The velocity scale which is multiplied by
                                !  the cube of the grid spacing to calculate the
                                !  biharmonic viscosity if BIHARMONIC is defined,
                                !  in units of m s-1. The final viscosity is
                                !  the largest of this scaled viscosity, the
                                !  Smagorinsky viscosity and AH.
SMAGORINSKY_AH = True           !    If defined, use a biharmonic form of
                                !  Smagorinsky's nonlinear eddy viscosity.
SMAG_BI_CONST = 0.06            !    The nondimensional biharmonic Smagorinsky
                                !  constant.  Often 0.015.

!  Specify the horizontal interface depth diffusion.
THICKNESSDIFFUSE = True         !    If THICKNESSDIFFUSE is defined, interfaces
                                !  are diffused with a coefficient of KHTH.
KHTH = 0.0001                   !    KHTH is the interface depth diffusivity,
                                !  in m2 s-1.

!  Specify the scheme for the Coriolis and momentum advection terms.
CORIOLIS_SCHEME = "SADOURNY75_ENERGY"
                                ! Selects the discretization of Coriolis terms.
                                ! Possible values are:
                                !   SADOURNY75_ENERGY - Sadourny's energy
                                !                       conserving scheme
                                !   ARAKAWA_HSU90     - Arakawa and Hsu's scheme
                                !   ROBUST_ENSTRO     - A pseudo-enstrophy
                                !                       conserving scheme, robust
                                !                       to vanishing thickness
BOUND_CORIOLIS = True           !    If BOUND_CORIOLIS is defined, the Coriolis
                                !  terms at u points are bounded by the four
                                !  estimates of (f+rv)v from the four neighboring
                                !  v points, and similarly at v points. This
                                !  option would have no effect on the SADOURNY
                                !  scheme if it were possible to use centered
                                !  difference thickness fluxes.  In addition, if
                                !  SMAGORINSKY_AH is used, the biharmonic
                                !  viscosity is modified to include a term that
                                !  scales quadratically with the velocity
                                !  shears.
CORIOLIS_EN_DIS = False         !    If CORIOLIS_EN_DIS is defined, two estimates
                                !  of the thickness fluxes are used to estimate
                                !  the Coriolis term, and the one that dissipates
                                !  energy relative to the other one is used.

!  Specify the scheme for the vertical viscosity.
HARMONIC_VISC = True            !    If defined, use the harmonic mean thickness
                                !  for calculating the vertical viscosity.

!  Specify the scheme for the pressure gradient accelerations.
ANALYTIC_FV_PGF = False         !    If defined the pressure gradient forces
                                !  are calculated with a finite volume form that
                                !  analytically integrates the equations of state
                                !  in pressure to avoid any possibility of
                                !  numerical thermobaric instability.

!  Specify the scheme for the barotropic solver.
FLUX_BT_COUPLING = False        !    If defined, use mass fluxes to ensure
                                !  consistency between the baroclinic and
                                !  barotropic modes.
USE_BT_CONT_TYPE = True         !    If defined, use a structure with elements
                                ! that describe effective face areas from the
                                ! summed layer continuity solvers as a function
                                ! the barotropic flow in coupling between the
                                ! barotropic and baroclinic flow.
BT_USE_LAYER_FLUXES = True      !   If true, linearize the continuity equation
                                ! in the barotropic solver about the layer
                                ! fluxes.  This may require USE_BT_CONT_TYPE and
                                ! BT_THICK_SCHEME FROM_BT_CONT to work properly.
BOUND_BT_CORRECTION = True      !    If defined, the corrective pseudo mass-
                                !  fluxes into the barotropic solver are limited
                                !  to values that require less than 0.1*MAXVEL to
                                !  be accommodated.
BT_PROJECT_VELOCITY = True      !    If true, project the velocity forward in
                                !  time, simplifying the barotropic algorithm.
BT_THICK_SCHEME = "FROM_BT_CONT" ! A string describing the scheme that is used
                                ! to set the open face areas used for barotropic
                                ! transport and the relative weights of the layer
                                ! accelerations. Valid values are:
                                ! ARITHMETIC - arithmetic mean layer thicknesses
                                ! HARMONIC - harmonic mean layer thicknesses
                                ! HYBRID (the default) - use arithmetic means for
                                !    layers above the shallowest bottom, the
                                !    harmonic mean for layers below, and a weighted
                                !    average for layers that straddle that depth
                                ! FROM_BT_CONT - use the average thicknesses kept
                                !    it the h_u and h_v fields of BT_cont_type.

!  Specify the properties of the active tracers and Eqn of state.
ENABLE_THERMODYNAMICS = False   !   Temperature and salinity are used as state
                                !  variables if ENABLE_THERMODYNAMICS is defined.
RHO_0 = 1031.0                  !    RHO_0 is used in the Boussinesq
                                !  approximation to calculations of pressure and
                                !  pressure gradients, in units of kg m-3.

!  Specify the properties of the passive tracers.
USE_DOME_TRACER = True          !    If defined, the DOME tracer package is used.

!  Specify the properties of the diapycnal viscosity and diffusion.
HMIX = 20.0                     !    The depth of the assumed mixed layer for
                                !  distribution of wind forcing, in m.  If
                                !  BULKMIXEDLAYER is defined, the buoyancy fluxes
                                !  are scaled away when the total depth is less
                                !  than HMIX/2.
KVML = 1.00e-2                  !    The kinematic viscosity in the mixed layer,
                                !  in m2 s-1.  A typical value is ~1e-2 m2 s-1.
                                !  KVML is not used if BULKMIXEDLAYER is defined.
DIRECT_STRESS = True            !    If DIRECT_STRESS is defined, the wind stress
                                !  is distributed over the topmost HMIX of fluid,
                                !  and KVML may be set to a very small value.

KV = 1.00e-4                    !    The kinematic viscosity in the interior, in
                                !  m2 s-1.  The molecular value, ~1e-6 m2 s-1,
                                !  may be used.
KD = 1.00e-4                    !    The diapycnal diffusivity of density in the
                                !  interior, in m2 s-1.  Zero or the molecular
                                !  value, ~1e-7 m2 s-1, may be used.

MAX_ENT_IT = 20                 !    The maximum number of iterations that may be
                                !  used to calculate the interior diapycnal
                                !  entrainment.
TOLERANCE_ENT = 1.0e-5          !    The tolerance in m with which to solve for
                                !  entrainment values.
USE_JACKSON_PARAM = True        !    If true, use the new Jackson-Hallberg-Legg
                                !  (JPO 2008) shear mixing parameterization.
RINO_CRIT = 0.25                !    The critical Richardson number for shear
                                !  mixing.  With the Jackson et al. parameteriz-
                                !  ation, values range from 0.25 to 0.35.
MAX_RINO_IT = 25                !    The maximum number of iterations that may be
                                !  used to estimate the Richardson number driven
                                !  mixing.

HBBL = 10.0                     !    The thickness in m of a bottom boundary
                                !  layer with a viscosity of KVBBL if
                                !  BOTTOMDRAGLAW is not defined, or the thickness
                                !  over which near-bottom velocities are averaged
                                !  for the drag law if BOTTOMDRAGLAW is defined
                                !  but LINEAR_DRAG is not.
BOTTOMDRAGLAW = True            !    If BOTTOMDRAGLAW is defined, the bottom
                                !  stress is calculated with a drag law
                                !  c_drag*|u|*u. The velocity magnitude may be an
                                !  assumed value or it may be based on the actual
                                !  velocity in the bottommost HBBL, depending on
                                !  LINEAR_DRAG.
CDRAG = 0.002                   !    CDRAG is the drag coefficient relating the
                                !  magnitude of the velocity field to the bottom
                                !  stress. CDRAG is only used if BOTTOMDRAGLAW is
                                !  defined.
DRAG_BG_VEL = 0.05              !    DRAG_BG_VEL is either the assumed bottom
                                !  velocity (with LINEAR_DRAG) or an unresolved
                                !  velocity that is combined with the resolved
                                !  velocity to estimate the velocity magnitude,
                                !  in m s-1.  DRAG_BG_VEL is only used when
                                !  BOTTOMDRAGLAW is defined.
BBL_THICK_MIN = 0.1             !    The minimum bottom boundary layer thickness,
                                !  in m, that can be used with BOTTOMDRAGLAW.
                                !  This might be Kv / (cdrag * drag_bg_vel) to
                                !  give Kv as the minimum near-bottom viscosity.
BBL_EFFIC = 0.20                !    BBL_EFFIC is the efficiency with which the
                                !  energy extracted by  bottom drag drives BBL
                                !  diffusion.  Nondimensional.  BBL_EFFIC only
                                !  applies when BOTTOMDRAGLAW is defined.

!  Specify properties of the surface forcing.
VARIABLE_BUOYFORCE = False      !    If VARIABLE_BUOYFORCE is defined the surface
                                !  fluxes of buoyancy or heat and fresh water
                                !  are recalculated every coupling time step.
BUOY_CONFIG = "zero"            !    Method for determining buoyancy forcing
                                !  (can be file, zero or USER).

VARIABLE_WINDS = False          !    If the wind stresses vary with time, define
                                !  VARIABLE_WINDS, which will cause wind_forcing
                                !  to be calculated every coupling timestep.
WIND_CONFIG = "zero"            !   Method for forcing winds (zero, 2gyre, file or
                                !  USER).

!   Specify whether sponges are used.  It is possible to use the model in robust
! diagnostic mode by defining sponges that span the entire domain.
SPONGE = True                   !    If SPONGE is defined, sponges may be applied
                                !  anywhere in the domain. The exact location and
                                !  properties of those sponges are specified from
                                !  MOM_initialization.F90.
APPLY_OBC_U = False             !    If defined, open boundary conditions may be
APPLY_OBC_V = True              !  applied at some u- or v- points.  The boundary
                                !  conditions are set in USER_set_Open_Bdry_Conds
                                !  in MOM_initialization.F90
SPONGE_CONFIG = "DOME"          !    DOME, USER or default if undefined.
OBC_CONFIG = "DOME"             !    DOME, USER or default if undefined.

! Specify a few miscellaneous limits.
MAXVEL = 10.0                   !    This is the maximum velocity allowed before
                                !  the velocity is truncated, in units of m s-1.
