! Generated by create_data.m
F_0 = -0.000113031
INPUTDIR = "INPUT/Kerguelen"
