! Generated by create_data.m
F_0 = 7.27221e-05
INPUTDIR = "INPUT/Kuroshio"
