! Generated by create_data.m
F_0 = 3.27178e-05
INPUTDIR = "INPUT/Mariana"
