! Generated by create_data.m
F_0 = -1.5203e-05
INPUTDIR = "INPUT/Chagos"
