! Parameters specific to the layer mode
ADJUST_THICKNESS = True
FOX_KEMPER_ML_RESTRAT_COEF = 20.0
ABSORB_ALL_SW = True
LIMIT_BUFFER_DETRAIN = True
DEPTH_LIMIT_FLUXES = 0.1
ML_RESORT = True
ML_PRESORT_NK_CONV_ADJ = 4
CORRECT_ABSORPTION_DEPTH = True
DO_RIVERMIX = True
RIVERMIX_DEPTH = 40.0
