! Generated by create_data.m
F_0 = 7.59943e-05
INPUTDIR = "INPUT/BATS"
