! Generated by create_data.m
F_0 = -0.00013981
INPUTDIR = "INPUT/Weddell"
