/* This input file provides the adjustable run-time parameters for version 6 of
   the Modular Ocean Model (MOM6), a numerical ocean model developed at NOAA-GFDL.
   Where appropriate, parameters use usually given in MKS units.

   This particular file is for the example in single_column_z.

   This MOM_input file typically contains only the non-default values that are
   needed to reproduce this example.  A full list of parameters for this example
   can be found in the corresponding MOM_parameter_doc.all file which is
   generated by the model at run-time. */

REENTRANT_Y = True              !   [Boolean] default = False
                                ! If true, the domain is meridionally reentrant.
!SYMMETRIC_MEMORY_ = False      !   [Boolean]
                                ! If defined, the velocity point data domain includes
                                ! every face of the thickness points. In other words,
                                ! some arrays are larger than others, depending on where
                                ! they are on the staggered grid.  Also, the starting
                                ! index of the velocity-point arrays is usually 0, not 1.
                                ! This can only be set at compile time.
!STATIC_MEMORY_ = False         !   [Boolean]
                                ! If STATIC_MEMORY_ is defined, the principle variables
                                ! will have sizes that are statically determined at
                                ! compile time.  Otherwise the sizes are not determined
                                ! until run time. The STATIC option is substantially
                                ! faster, but does not allow the PE count to be changed
                                ! at run time.  This can only be set at compile time.
NIGLOBAL = 2                    !
                                ! The total number of thickness grid points in the
                                ! x-direction in the physical domain. With STATIC_MEMORY_
                                ! this is set in MOM_memory.h at compile time.
NJGLOBAL = 2                    !
                                ! The total number of thickness grid points in the
                                ! y-direction in the physical domain. With STATIC_MEMORY_
                                ! this is set in MOM_memory.h at compile time.
!NIPROC = 1                     !
                                ! The number of processors in the x-direction. With
                                ! STATIC_MEMORY_ this is set in MOM_memory.h at compile time.
!NJPROC = 1                     !
                                ! The number of processors in the x-direction. With
                                ! STATIC_MEMORY_ this is set in MOM_memory.h at compile time.
!LAYOUT = 1, 1                  !
                                ! The processor layout that was acutally used.

! === module MOM_grid ===
! Parameters providing information about the vertical grid.
NK = 75                         !   [nondim]
                                ! The number of model layers.

! === module MOM_verticalGrid ===
! Parameters providing information about the vertical grid.

! === module MOM ===
SPLIT = False                   !   [Boolean] default = True
                                ! Use the split time stepping if true.
BULKMIXEDLAYER = False          !   [Boolean] default = True
                                ! If true, use a Kraus-Turner-like bulk mixed layer
                                ! with transitional buffer layers.  Layers 1 through
                                ! NKML+NKBL have variable densities. There must be at
                                ! least NKML+NKBL+1 layers if BULKMIXEDLAYER is true.
                                ! The default is the same setting as ENABLE_THERMODYNAMICS.
USE_REGRIDDING = True           !   [Boolean] default = False
                                ! If True, use the ALE algorithm (regridding/remapping).
                                ! If False, use the layered isopycnal algorithm.
DT = 3600.0                     !   [s]
                                ! The (baroclinic) dynamics time step.  The time-step that
                                ! is actually used will be an integer fraction of the
                                ! forcing time-step (DT_FORCING in ocean-only mode or the
                                ! coupling timestep in coupled mode.)
MIN_Z_DIAG_INTERVAL = 2.16E+04  !   [s] default = 0.0
                                ! The minimum amount of time in seconds between
                                ! calculations of depth-space diagnostics. Making this
                                ! larger than DT_THERM reduces the  performance penalty
                                ! of regridding to depth online.
FRAZIL = True                   !   [Boolean] default = False
                                ! If true, water freezes if it gets too cold, and the
                                ! the accumulated heat deficit is returned in the
                                ! surface state.  FRAZIL is only used if
                                ! ENABLE_THERMODYNAMICS is true.
C_P = 3925.0                    !   [J kg-1 K-1] default = 3991.86795711963
                                ! The heat capacity of sea water, approximated as a
                                ! constant. This is only used if ENABLE_THERMODYNAMICS is
                                ! true. The default value is from the TEOS-10 definition
                                ! of conservative temperature.
SAVE_INITIAL_CONDS = True       !   [Boolean] default = False
                                ! If true, write the initial conditions to a file given
                                ! by IC_OUTPUT_FILE.

! === module MOM_tracer_registry ===

! === module MOM_tracer_flow_control ===
COORD_CONFIG = "none"           !
                                ! This specifies how layers are to be defined:
                                !     file - read coordinate information from the file
                                !       specified by (COORD_FILE).
                                !     linear - linear based on interfaces not layesrs.
                                !     ts_ref - use reference temperature and salinity
                                !     ts_range - use range of temperature and salinity
                                !       (T_REF and S_REF) to determine surface density
                                !       and GINT calculate internal densities.
                                !     gprime - use reference density (RHO_0) for surface
                                !       density and GINT calculate internal densities.
                                !     ts_profile - use temperature and salinity profiles
                                !       (read from COORD_FILE) to set layer densities.
                                !     USER - call a user modified routine.

! === module MOM_grid_init ===
GRID_CONFIG = "cartesian"       !
                                ! A character string that determines the method for
                                ! defining the horizontal grid.  Current options are:
                                !     mosaic - read the grid from a mosaic (supergrid)
                                !              file set by GRID_FILE.
                                !     cartesian - use a (flat) Cartesian grid.
                                !     spherical - use a simple spherical grid.
                                !     mercator - use a Mercator spherical grid.
SOUTHLAT = 30.0                 !   [degrees]
                                ! The southern latitude of the domain or the equivalent
                                ! starting value for the y-axis.
LENLAT = 1.0                    !   [degrees]
                                ! The latitudinal or y-direction length of the domain.
LENLON = 1.0                    !   [degrees]
                                ! The longitudinal or x-direction length of the domain.
TOPO_CONFIG = "flat"            !
                                ! This specifies how bathymetry is specified:
                                !     file - read bathymetric information from the file
                                !       specified by (TOPO_FILE).
                                !     flat - flat bottom set to MAXIMUM_DEPTH.
                                !     bowl - an analytically specified bowl-shaped basin
                                !       ranging between MAXIMUM_DEPTH and MINIMUM_DEPTH.
                                !     spoon - a similar shape to 'bowl', but with an vertical
                                !       wall at the southern face.
                                !     halfpipe - a zonally uniform channel with a half-sine
                                !       profile in the meridional direction.
                                !     benchmark - use the benchmark test case topography.
                                !     DOME - use a slope and channel configuration for the
                                !       DOME sill-overflow test case.
                                !     DOME2D - use a shelf and slope configuration for the
                                !       DOME2D gravity current/overflow test case.
                                !     seamount - Gaussian bump for spontaneous motion test case.
                                !     USER - call a user modified routine.
MINIMUM_DEPTH = 0.5             !   [m] default = 0.0
                                ! The minimum depth of the ocean.
MAXIMUM_DEPTH = 6000.0          !   [m]
                                ! The maximum depth of the ocean.
ROTATION = "betaplane"          ! default = "2omegasinlat"
                                ! This specifies how the Coriolis parameter is specified:
                                !     2omegasinlat - Use twice the planetary rotation rate
                                !       times the sine of latitude.
                                !     betaplane - Use a beta-plane or f-plane.
                                !     USER - call a user modified routine.
INIT_LAYERS_FROM_Z_FILE = True  !   [Boolean] default = False
                                ! If true, intialize the layer thicknesses, temperatures,
                                ! and salnities from a Z-space file on a latitude-
                                ! longitude grid.
TEMP_SALT_Z_INIT_FILE = "WOA_column.nc" ! default = "temp_salt_z.nc"
                                ! The name of the z-space input file used to initialize
                                ! the layer thicknesses, temperatures and salinities.
Z_INIT_FILE_PTEMP_VAR = "PTEMP" ! default = "ptemp"
                                ! The name of the potential temperature variable in
                                ! TEMP_SALT_Z_INIT_FILE.
Z_INIT_FILE_SALT_VAR = "SALT"   ! default = "salt"
                                ! The name of the salinity variable in
                                ! TEMP_SALT_Z_INIT_FILE.
Z_INIT_HOMOGENIZE = True        !   [Boolean] default = False
                                ! If True, then horizontally homogenize the interpolated
                                ! initial conditions.
Z_INIT_ALE_REMAPPING = True     !   [Boolean] default = False
                                ! If True, then remap straight to model coordinate from file.
REGRIDDING_COORDINATE_MODE = "Z*" ! default = "LAYER"
                                ! Coordinate mode for vertical regridding.
                                ! Choose among the following possibilities:
                                !  LAYER - Isopycnal or stacked shallow water layers
                                !  Z*    - stetched geopotential z*
                                !  SIGMA - terrain following coordinates
                                !  RHO   - continuous isopycnal
ALE_COORDINATE_CONFIG = "FILE:INPUT/vgrid_cm4_10.nc,dz" ! default = "UNIFORM"
                                ! Determines how to specify the coordinate
                                ! resolution. Valid options are:
                                !  PARAM       - use the vector-parameter ALE_RESOLUTION
                                !  UNIFORM     - uniformly distributed
                                !  FILE:string - read from a file. The string specifies
                                !                the filename and variable name, separated
                                !                by a comma or space, e.g. FILE:lev.nc,Z
!ALE_RESOLUTION = 3*10.0, 10.01, 10.02, 10.03, 10.05, 10.09, 10.13, 10.2, 10.29, 10.39, 10.53, 10.71, 10.91, 11.15, 11.46, 11.8, 12.22, 12.69, 13.24, 13.88, 14.62, 15.45, 16.4, 17.5, 18.72, 20.13, 21.7, 23.48, 25.47, 27.71, 30.22, 33.0, 36.08, 39.51, 43.26, 47.38, 51.86, 56.72, 61.95, 67.53, 73.47, 79.72, 86.25, 93.0, 99.95, 106.99, 114.09, 121.13, 128.08, 134.83, 141.32, 147.47, 153.23, 158.55, 163.4, 167.73, 171.57, 174.87, 177.7, 180.06, 181.97, 183.49, 184.66, 185.55, 186.17, 186.6, 186.87, 187.04, 187.11, 187.15, 2*187.16, 187.17 !   [m]
                                ! The distribution of vertical resolution for the target
                                ! grid used for Eulerian-like coordinates. For example,
                                ! in z-coordinate mode, the parameter is a list of level
                                ! thicknesses (in m). In sigma-coordinate mode, the list
                                ! is of non-dimensional fractions of the water column.

! === module MOM_MEKE ===
CDRAG = 0.0                     !   [nondim] default = 0.003
                                ! CDRAG is the drag coefficient relating the magnitude of
                                ! the velocity field to the bottom stress.

! === module MOM_lateral_mixing_coeffs ===
UPWIND_1ST_CONTINUITY = True    !   [Boolean] default = False
                                ! If true, CONTINUITY_PPM becomes a 1st-order upwind
                                ! continuity solver.  This scheme is highly diffusive
                                ! but may be useful for debugging or in single-column
                                ! mode where its minimal stensil is useful.
ETA_TOLERANCE = 1.0E-06         !   [m] default = 3.75E-09
                                ! The tolerance for the differences between the
                                ! barotropic and baroclinic estimates of the sea surface
                                ! height due to the fluxes through each face.  The total
                                ! tolerance for SSH is 4 times this value.  The default
                                ! is 0.5*NK*ANGSTROM, and this should not be set less x
                                ! than about 10^-15*MAXIMUM_DEPTH.
ETA_TOLERANCE_AUX = 0.001       !   [m] default = 1.0E-06
                                ! The tolerance for free-surface height discrepancies
                                ! between the barotropic solution and the sum of the
                                ! layer thicknesses when calculating the auxiliary
                                ! corrected velocities. By default, this is the same as
                                ! ETA_TOLERANCE, but can be made larger for efficiency.
CORIOLIS_EN_DIS = True          !   [Boolean] default = False
                                ! If true, two estimates of the thickness fluxes are used
                                ! to estimate the Coriolis term, and the one that
                                ! dissipates energy relative to the other one is used.
BOUND_CORIOLIS = True           !   [Boolean] default = False
                                ! If true, the Coriolis terms at u-points are bounded by
                                ! the four estimates of (f+rv)v from the four neighboring
                                ! v-points, and similarly at v-points.  This option is
                                ! always effectively false with CORIOLIS_EN_DIS defined and
                                ! CORIOLIS_SCHEME set to SADOURNY75_ENERGY.

! === module MOM_hor_visc ===
LAPLACIAN = True                !   [Boolean] default = False
                                ! If true, use a Laplacian horizontal viscosity.
KH_VEL_SCALE = 0.01             !   [m s-1] default = 0.0
                                ! The velocity scale which is multiplied by the grid
                                ! spacing to calculate the Laplacian viscosity.
                                ! The final viscosity is the largest of this scaled
                                ! viscosity, the Smagorinsky viscosity and KH.
AH_VEL_SCALE = 0.05             !   [m s-1] default = 0.0
                                ! The velocity scale which is multiplied by the cube of
                                ! the grid spacing to calculate the Laplacian viscosity.
                                ! The final viscosity is the largest of this scaled
                                ! viscosity, the Smagorinsky viscosity and AH.
SMAGORINSKY_AH = True           !   [Boolean] default = False
                                ! If true, use a biharmonic Smagorinsky nonlinear eddy
                                ! viscosity.
SMAG_BI_CONST = 0.06            !   [nondim] default = 0.0
                                ! The nondimensional biharmonic Smagorinsky constant,
                                ! typically 0.015 - 0.06.

! === module MOM_vert_friction ===
U_TRUNC_FILE = "U_velocity_truncations" ! default = ""
                                ! The absolute path to a file into which the accelerations
                                ! leading to zonal velocity truncations are written.
                                ! Undefine this for efficiency if this diagnostic is not
                                ! needed.
V_TRUNC_FILE = "V_velocity_truncations" ! default = ""
                                ! The absolute path to a file into which the accelerations
                                ! leading to meridional velocity truncations are written.
                                ! Undefine this for efficiency if this diagnostic is not
                                ! needed.
HARMONIC_VISC = True            !   [Boolean] default = False
                                ! If true, use the harmonic mean thicknesses for
                                ! calculating the vertical viscosity.
HMIX_FIXED = 0.01               !   [m]
                                ! The prescribed depth over which the near-surface
                                ! viscosity and diffusivity are elevated when the bulk
                                ! mixed layer is not used.
KV = 1.0E-04                    !   [m2 s-1]
                                ! The background kinematic viscosity in the interior.
                                ! The molecular value, ~1e-6 m2 s-1, may be used.
HBBL = 10.0                     !   [m]
                                ! The thickness of a bottom boundary layer with a
                                ! viscosity of KVBBL if BOTTOMDRAGLAW is not defined, or
                                ! the thickness over which near-bottom velocities are
                                ! averaged for the drag law if BOTTOMDRAGLAW is defined
                                ! but LINEAR_DRAG is not.
MAXVEL = 6.0                    !   [m s-1] default = 3.0E+08
                                ! The maximum velocity allowed before the velocity
                                ! components are truncated.

! === module MOM_PointAccel ===

! === module MOM_set_visc ===
PRANDTL_TURB = 1.0              !   [nondim] default = 0.0
                                ! The turbulent Prandtl number applied to shear
                                ! instability.
DRAG_BG_VEL = 0.1               !   [m s-1] default = 0.0
                                ! DRAG_BG_VEL is either the assumed bottom velocity (with
                                ! LINEAR_DRAG) or an unresolved  velocity that is
                                ! combined with the resolved velocity to estimate the
                                ! velocity magnitude.  DRAG_BG_VEL is only used when
                                ! BOTTOMDRAGLAW is defined.
BBL_THICK_MIN = 0.1             !   [m] default = 0.0
                                ! The minimum bottom boundary layer thickness that can be
                                ! used with BOTTOMDRAGLAW. This might be
                                ! Kv / (cdrag * drag_bg_vel) to give Kv as the minimum
                                ! near-bottom viscosity.

! === module MOM_thickness_diffuse ===

! === module MOM_mixed_layer_restrat ===
Z_OUTPUT_GRID_FILE = "../zgrid.nc" ! default = ""
                                ! The file that specifies the vertical grid for
                                ! depth-space diagnostics, or blank to disable
                                ! depth-space output.
!NK_ZSPACE (from file) = 50     !   [nondim]
                                ! The number of depth-space levels.  This is determined
                                ! from the size of the variable zw in the output grid file.

! === module MOM_diabatic_driver ===
! The following parameters are used for diabatic processes.
RECLAIM_FRAZIL = False          !   [Boolean] default = True
                                ! If true, try to use any frazil heat deficit to cool any
                                ! overlying layers down to the freezing point, thereby
                                ! avoiding the creation of thin ice when the SST is above
                                ! the freezing point.
ML_RADIATION = True             !   [Boolean] default = False
                                ! If true, allow a fraction of TKE available from wind
                                ! work to penetrate below the base of the mixed layer
                                ! with a vertical decay scale determined by the minimum
                                ! of: (1) The depth of the mixed layer, (2) an Ekman
                                ! length scale.
TKE_DECAY = 10.0                !   [nondim] default = 2.5
                                ! The ratio of the natural Ekman depth to the TKE decay scale.
ML_USE_OMEGA = True             !   [Boolean] default = False
                                ! If true, use the absolute rotation rate instead of the
                                ! vertical component of rotation when setting the decay
                                ! scale for turbulence in the mixed layer.
                                ! This is only used if ML_RADIATION is true.
KD = 2.0E-05                    !   [m2 s-1]
                                ! The background diapycnal diffusivity of density in the
                                ! interior. Zero or the molecular value, ~1e-7 m2 s-1,
                                ! may be used.
KD_MIN = 2.0E-06                !   [m2 s-1] default = 2.0E-07
                                ! The minimum diapycnal diffusivity.

! === module MOM_kappa_shear ===
! Parameterization of shear-driven turbulence following Jackson, Hallberg and Legg, JPO 2008
USE_JACKSON_PARAM = True        !   [Boolean] default = False
                                ! If true, use the Jackson-Hallberg-Legg (JPO 2008)
                                ! shear mixing parameterization.
MAX_RINO_IT = 25                !   [nondim] default = 50
                                ! The maximum number of iterations that may be used to
                                ! estimate the Richardson number driven mixing.

! === module MOM_KPP ===
! This is the MOM wrapper to CVmix:KPP
! See http://code.google.com/p/cvmix/
USE_KPP = True                  !   [Boolean] default = False
                                ! If true, turns on the [CVmix] KPP scheme of Large et al., 1984,
                                ! to calculate diffusivities and non-local transport in the OBL.
KPP%
KPP_IS_ADDITIVE = True          !   [Boolean] default = False
                                ! If true, adds KPP diffusivity to the existing diffusivity. If false, replaces exisiting diffusivity with KPP diffusivity wherever the latter is non-zero.
%KPP

! === module MOM_diffConvection ===
! This module implements enhanced diffusivity as a
! function of static stability, N^2.
CONVECTION%
%CONVECTION

! === module MOM_entrain_diffusive ===
MAX_ENT_IT = 20                 ! default = 5
                                ! The maximum number of iterations that may be used to
                                ! calculate the interior diapycnal entrainment.
TOLERANCE_ENT = 1.0E-05         !   [m] default = 2.683281572999748E-05
                                ! The tolerance with which to solve for entrainment values.

! === module MOM_regularize_layers ===
HMIX_MIN = 2.0                  !   [m] default = 0.0
                                ! The minimum mixed layer depth if the mixed layer depth
                                ! is determined dynamically.

! === module MOM_opacity ===
VAR_PEN_SW = True               !   [Boolean] default = False
                                ! If true, use one of the CHL_A schemes specified by
                                ! OPACITY_SCHEME to determine the e-folding depth of
                                ! incoming short wave radiation.
CHL_FILE = "forcing_monthly.nc" !
                                ! CHL_FILE is the file containing chl_a concentrations in
                                ! the variable CHL_A. It is used when VAR_PEN_SW and
                                ! CHL_FROM_FILE are true.
PEN_SW_NBANDS = 3               ! default = 1
                                ! The number of bands of penetrating shortwave radiation.

! === module MOM_tracer_advect ===

! === module MOM_tracer_hor_diff ===
KHTR = 600.0                    !   [m2 s-1] default = 0.0
                                ! The background along-isopycnal tracer diffusivity.

! === module MOM_surface_forcing ===
BUOY_CONFIG = "data_override"   !
                                ! The character string that indicates how buoyancy forcing
                                ! is specified. Valid options include (file), (zero),
                                ! (linear), (USER), and (NONE).
WIND_CONFIG = "data_override"   !
                                ! The character string that indicates how wind forcing
                                ! is specified. Valid options include (file), (2gyre),
                                ! (1gyre), (gyres), (zero), and (USER).
LATENT_HEAT_VAPORIZATION = 2.4663E+06 !   [J/kg] default = 2.5E+06
                                ! The latent heat of fusion.
READ_GUST_2D = True             !   [Boolean] default = False
                                ! If true, use a 2-dimensional gustiness supplied from
                                ! an input file
GUST_2D_FILE = "forcing_monthly.nc" !
                                ! The file in which the wind gustiness is found in
                                ! variable gustiness.

! === module MOM_sum_output ===
MAXTRUNC = 5000                 !   [truncations save_interval-1] default = 0
                                ! The run will be stopped, and the day set to a very
                                ! large value if the velocity is truncated more than
                                ! MAXTRUNC times between energy saves.  Set MAXTRUNC to 0
                                ! to stop if there is any truncation of velocities.
MAXCPU = 2.88E+04               !   [wall-clock seconds] default = -1.0
                                ! The maximum amount of cpu time per processor for which
                                ! MOM should run before saving a restart file and
                                ! quitting with a return value that indicates that a
                                ! further run is required to complete the simulation.
                                ! If automatic restarts are not desired, use a negative
                                ! value for MAXCPU.  MAXCPU has units of wall-clock
                                ! seconds, so the actual CPU time used is larger by a
                                ! factor of the number of processors used.

! === module MOM_main (MOM_driver) ===
DAYMAX = 365.0                  !   [days]
                                ! The final time of the whole simulation, in units of
                                ! TIMEUNIT seconds.  This also sets the potential end
                                ! time of the present run segment if the end time is
                                ! not set via ocean_solo_nml in input.nml.
RESTART_CONTROL = 0             ! default = 1
                                ! An integer whose bits encode which restart files are
                                ! written. Add 2 (bit 1) for a time-stamped file, and odd
                                ! (bit 0) for a non-time-stamped file. A non-time-stamped
                                ! restart file is saved at the end of the run segment
                                ! for any non-negative value.
RESTINT = 3650.0                !   [days] default = 0.0
                                ! The interval between saves of the restart file in units
                                ! of TIMEUNIT.  Use 0 (the default) to not save
                                ! incremental restart files at all.
ENERGYSAVEDAYS = 1.0            !   [days] default = 3600.0
                                ! The interval in units of TIMEUNIT between saves of the
                                ! energies of the run and other globally summed diagnostics.
