 &MOM_input_nml
         output_directory = './',
         input_filename = 'n'
         restart_input_dir = 'INPUT/',
         restart_output_dir = 'RESTART/',
         parameter_filename = 'MOM_input', 'MOM_override' /

 &diag_manager_nml
 /

 &fms_nml
         domains_stack_size = 710000,
         stack_size = 0 /

 &ocean_domains_nml
 /

