REENTRANT_X = True              !   [Boolean] default = True
                                ! If true, the domain is zonally reentrant.
REENTRANT_Y = False             !   [Boolean] default = False
                                ! If true, the domain is meridionally reentrant.
TRIPOLAR_N = False              !   [Boolean] default = False
                                ! Use tripolar connectivity at the northern edge of the
                                ! domain.  With TRIPOLAR_N, NIGLOBAL must be even.
!SYMMETRIC_MEMORY_ = False      !   [Boolean]
                                ! If defined, the velocity point data domain includes
                                ! every face of the thickness points. In other words,
                                ! some arrays are larger than others, depending on where
                                ! they are on the staggered grid.  Also, the starting
                                ! index of the velocity-point arrays is usually 0, not 1.
                                ! This can only be set at compile time.
NONBLOCKING_UPDATES = False     !   [Boolean] default = False
                                ! If true, non-blocking halo updates may be used.
!STATIC_MEMORY_ = False         !   [Boolean]
                                ! If STATIC_MEMORY_ is defined, the principle variables
                                ! will have sizes that are statically determined at
                                ! compile time.  Otherwise the sizes are not determined
                                ! until run time. The STATIC option is substantially
                                ! faster, but does not allow the PE count to be changed
                                ! at run time.  This can only be set at compile time.
NIHALO = 4                      ! default = 2
                                ! The number of halo points on each side in the
                                ! x-direction.  With STATIC_MEMORY_ this is set as NIHALO_
                                ! in MOM_memory.h at compile time; without STATIC_MEMORY_
                                ! the default is NIHALO_ in MOM_memory.h (if defined) or 2.
NJHALO = 4                      ! default = 2
                                ! The number of halo points on each side in the
                                ! y-direction.  With STATIC_MEMORY_ this is set as NJHALO_
                                ! in MOM_memory.h at compile time; without STATIC_MEMORY_
                                ! the default is NJHALO_ in MOM_memory.h (if defined) or 2.
NIGLOBAL = 60                   !
                                ! The total number of thickness grid points in the
                                ! x-direction in the physical domain. With STATIC_MEMORY_
                                ! this is set in MOM_memory.h at compile time.
NJGLOBAL = 80                   !
                                ! The total number of thickness grid points in the
                                ! y-direction in the physical domain. With STATIC_MEMORY_
                                ! this is set in MOM_memory.h at compile time.
MASKTABLE = "MOM_mask_table"    ! default = "MOM_mask_table"
                                ! A text file to specify n_mask, layout and mask_list.
                                ! This feature masks out processors that contain only land points.
                                ! The first line of mask_table is the number of regions to be masked out.
                                ! The second line is the layout of the model and must be
                                ! consistent with the actual model layout.
                                ! The following (n_mask) lines give the logical positions
                                ! of the processors that are masked out. The mask_table
                                ! can be created by tools like check_mask. The
                                ! following example of mask_table masks out 2 processors,
                                ! (1,2) and (3,6), out of the 24 in a 4x6 layout:
                                !  2
                                !  4,6
                                !  1,2
                                !  3,6
LAYOUT = 0, 0                   ! default = 0
                                ! The processor layout to be used, or 0, 0 to automatically
                                ! set the layout based on the number of processors.
!NIPROC = 4                     !
                                ! The number of processors in the x-direction. With
                                ! STATIC_MEMORY_ this is set in MOM_memory.h at compile time.
!NJPROC = 16                    !
                                ! The number of processors in the x-direction. With
                                ! STATIC_MEMORY_ this is set in MOM_memory.h at compile time.
!LAYOUT = 4, 16                 !
                                ! The processor layout that was acutally used.
IO_LAYOUT = 1, 1                ! default = 0
                                ! The processor layout to be used, or 0,0 to automatically
                                ! set the io_layout to be the same as the layout.

! === module MOM_grid ===
! Parameters providing information about the vertical grid.
G_EARTH = 9.8                   !   [m s-2] default = 9.8
                                ! The gravitational acceleration of the Earth.
RHO_0 = 1031.0                  !   [kg m-3] default = 1035.0
                                ! The mean ocean density used with BOUSSINESQ true to
                                ! calculate accelerations and the mass for conservation
                                ! properties, or with BOUSSINSEQ false to convert some
                                ! parameters from vertical units of m to kg m-2.
FIRST_DIRECTION = 0             ! default = 0
                                ! An integer that indicates which direction goes first
                                ! in parts of the code that use directionally split
                                ! updates, with even numbers (or 0) used for x- first
                                ! and odd numbers used for y-first.
BOUSSINESQ = True               !   [Boolean] default = True
                                ! If true, make the Boussinesq approximation.
ANGSTROM = 1.0E-10              !   [m] default = 1.0E-10
                                ! The minumum layer thickness, usually one-Angstrom.
BATHYMETRY_AT_VEL = False       !   [Boolean] default = False
                                ! If true, there are separate values for the basin depths
                                ! at velocity points.  Otherwise the effects of of
                                ! topography are entirely determined from thickness points.
NK = 2                          !   [nondim]
                                ! The number of model layers.
NIBLOCK = 1                     ! default = 1
                                ! The number of blocks in the x-direction on each processor (for openmp).
NJBLOCK = 1                     ! default = 1
                                ! The number of blocks in the y-direction on each processor (for openmp).

! === module MOM_verticalGrid ===
! Parameters providing information about the vertical grid.
AVAILABLE_DIAGS_FILE = "available_diags.000000" ! default = "available_diags.000000"
                                ! A file into which to write a list of all available
                                ! ocean diagnostics that can be included in a diag_table.

! === module MOM ===
VERBOSITY = 2                   ! default = 2
                                ! Integer controlling level of messaging
                                !   0 = Only FATAL messages
                                !   2 = Only FATAL, WARNING, NOTE [default]
                                !   9 = All)
SPLIT = True                    !   [Boolean] default = True
                                ! Use the split time stepping if true.
USE_LEGACY_SPLIT = False        !   [Boolean] default = False
                                ! If true, use the full range of options available from
                                ! the older GOLD-derived split time stepping code.
ENABLE_THERMODYNAMICS = False   !   [Boolean] default = True
                                ! If true, Temperature and salinity are used as state
                                ! variables.
USE_EOS = False                 !   [Boolean] default = False
                                ! If true,  density is calculated from temperature and
                                ! salinity with an equation of state.  If USE_EOS is
                                ! true, ENABLE_THERMODYNAMICS must be true as well.
DIABATIC_FIRST = False          !   [Boolean] default = False
                                ! If true, apply diabatic and thermodynamic processes,
                                ! including buoyancy forcing and mass gain or loss,
                                ! before stepping the dynamics forward.
ADIABATIC = False               !   [Boolean] default = False
                                ! There are no diapycnal mass fluxes if ADIABATIC is
                                ! true. This assumes that KD = KDML = 0.0 and that
                                ! there is no buoyancy forcing, but makes the model
                                ! faster by eliminating subroutine calls.
BULKMIXEDLAYER = False          !   [Boolean] default = False
                                ! If true, use a Kraus-Turner-like bulk mixed layer
                                ! with transitional buffer layers.  Layers 1 through
                                ! NKML+NKBL have variable densities. There must be at
                                ! least NKML+NKBL+1 layers if BULKMIXEDLAYER is true.
                                ! The default is the same setting as ENABLE_THERMODYNAMICS.
USE_REGRIDDING = False          !   [Boolean] default = False
                                ! If True, use the ALE algorithm (regridding/remapping).
                                ! If False, use the layered isopycnal algorithm.
THICKNESSDIFFUSE = True         !   [Boolean] default = False
                                ! If true, interfaces or isopycnal surfaces are diffused,
                                ! depending on the value of FULL_THICKNESSDIFFUSE.
THICKNESSDIFFUSE_FIRST = False  !   [Boolean] default = False
                                ! If true, do thickness diffusion before dynamics.
                                ! This is only used if THICKNESSDIFFUSE is true.
DEBUG = False                   !   [Boolean] default = False
                                ! If true, write out verbose debugging data.
DEBUG_TRUNCATIONS = False       !   [Boolean] default = False
                                ! If true, calculate all diagnostics that are useful for
                                ! debugging truncations.
DT = 600.0                      !   [s]
                                ! The (baroclinic) dynamics time step.  The time-step that
                                ! is actually used will be an integer fraction of the
                                ! forcing time-step (DT_FORCING in ocean-only mode or the
                                ! coupling timestep in coupled mode.)
DT_THERM = 1800.0               !   [s] default = 600.0
                                ! The thermodynamic and tracer advection time step.
                                ! Ideally DT_THERM should be an integer multiple of DT
                                ! and less than the forcing or coupling time-step.
                                ! By default DT_THERM is set to DT.
HMIX_SFC_PROP = 1.0             !   [m] default = 1.0
                                ! If BULKMIXEDLAYER is false, HMIX_SFC_PROP is the depth
                                ! over which to average to find surface properties like
                                ! SST and SSS or density (but not surface velocities).
MIN_Z_DIAG_INTERVAL = 0.0       !   [s] default = 0.0
                                ! The minimum amount of time in seconds between
                                ! calculations of depth-space diagnostics. Making this
                                ! larger than DT_THERM reduces the  performance penalty
                                ! of regridding to depth online.
INTERPOLATE_P_SURF = False      !   [Boolean] default = False
                                ! If true, linearly interpolate the surface pressure
                                ! over the coupling time step, using the specified value
                                ! at the end of the step.
SSH_SMOOTHING_PASSES = 0.0      !   [nondim] default = 0.0
                                ! The number of Laplacian smoothing passes to apply to the
                                ! the sea surface height that is reported to the sea-ice.
DTBT_RESET_PERIOD = 8.64E+04    !   [s] default = 1800.0
                                ! The period between recalculations of DTBT (if DTBT <= 0).
                                ! If DTBT_RESET_PERIOD is negative, DTBT is set based
                                ! only on information available at initialization.  If
                                ! dynamic, DTBT will be set at least every forcing time
                                ! step, and if 0, every dynamics time step.  The default is
                                ! set by DT_THERM.  This is only used if SPLIT is true.
CHECK_BAD_SURFACE_VALS = False  !   [Boolean] default = False
                                ! If true, check the surface state for ridiculous values.
SAVE_INITIAL_CONDS = True       !   [Boolean] default = False
                                ! If true, write the initial conditions to a file given
                                ! by IC_OUTPUT_FILE.
IC_OUTPUT_FILE = "MOM_IC"       ! default = "MOM_IC"
                                ! The file into which to write the initial conditions.

! === module MOM_tracer_registry ===
PARALLEL_RESTARTFILES = False   !   [Boolean] default = False
                                ! If true, each processor writes its own restart file,
                                ! otherwise a single restart file is generated
RESTARTFILE = "MOM.res"         ! default = "MOM.res"
                                ! The name-root of the restart file.
LARGE_FILE_SUPPORT = True       !   [Boolean] default = True
                                ! If true, use the file-size limits with NetCDF large
                                ! file support (4Gb), otherwise the limit is 2Gb.
MAX_FIELDS = 50                 ! default = 100
                                ! The maximum number of restart fields that can be used.

! === module MOM_tracer_flow_control ===
USE_USER_TRACER_EXAMPLE = False !   [Boolean] default = False
                                ! If true, use the USER_tracer_example tracer package.
USE_DOME_TRACER = False         !   [Boolean] default = False
                                ! If true, use the DOME_tracer tracer package.
USE_IDEAL_AGE_TRACER = False    !   [Boolean] default = False
                                ! If true, use the ideal_age_example tracer package.
USE_OIL_TRACER = False          !   [Boolean] default = False
                                ! If true, use the oil_tracer tracer package.
USE_ADVECTION_TEST_TRACER = False !   [Boolean] default = False
                                ! If true, use the advection_test_tracer tracer package.
USE_OCMIP2_CFC = False          !   [Boolean] default = False
                                ! If true, use the MOM_OCMIP2_CFC tracer package.
USE_generic_tracer = False      !   [Boolean] default = False
                                ! If true and _USE_GENERIC_TRACER is defined as a
                                ! preprocessor macro, use the MOM_generic_tracer packages.
INPUTDIR = "INPUT"              ! default = "."
                                ! The directory in which input files are found.
COORD_CONFIG = "gprime"         !
                                ! This specifies how layers are to be defined:
                                !     file - read coordinate information from the file
                                !       specified by (COORD_FILE).
                                !     linear - linear based on interfaces not layesrs.
                                !     ts_ref - use reference temperature and salinity
                                !     ts_range - use range of temperature and salinity
                                !       (T_REF and S_REF) to determine surface density
                                !       and GINT calculate internal densities.
                                !     gprime - use reference density (RHO_0) for surface
                                !       density and GINT calculate internal densities.
                                !     ts_profile - use temperature and salinity profiles
                                !       (read from COORD_FILE) to set layer densities.
                                !     USER - call a user modified routine.
GFS = 9.8                       !   [m s-2] default = 9.8
                                ! The reduced gravity at the free surface.
GINT = 0.0196                   !   [m s-2]
                                ! The reduced gravity across internal interfaces.

! === module MOM_grid_init ===
GRID_CONFIG = "cartesian"       !
                                ! A character string that determines the method for
                                ! defining the horizontal grid.  Current options are:
                                !     mosaic - read the grid from a mosaic (supergrid)
                                !              file set by GRID_FILE.
                                !     cartesian - use a (flat) Cartesian grid.
                                !     spherical - use a simple spherical grid.
                                !     mercator - use a Mercator spherical grid.
AXIS_UNITS = "k"                ! default = "degrees"
                                ! The units for the Cartesian axes. Valid entries are:
                                !     degrees - degrees of latitude and longitude
                                !     m - meters
                                !     k - kilometers
SOUTHLAT = 0.0                  !   [k]
                                ! The southern latitude of the domain or the equivalent
                                ! starting value for the y-axis.
LENLAT = 1600.0                 !   [k]
                                ! The latitudinal or y-direction length of the domain.
WESTLON = 0.0                   !   [k] default = 0.0
                                ! The western longitude of the domain or the equivalent
                                ! starting value for the x-axis.
LENLON = 1200.0                 !   [k]
                                ! The longitudinal or x-direction length of the domain.
RAD_EARTH = 6.378E+06           !   [m] default = 6.378E+06
                                ! The radius of the Earth.
TOPO_CONFIG = "flat"            !
                                ! This specifies how bathymetry is specified:
                                !     file - read bathymetric information from the file
                                !       specified by (TOPO_FILE).
                                !     flat - flat bottom set to MAXIMUM_DEPTH.
                                !     bowl - an analytically specified bowl-shaped basin
                                !       ranging between MAXIMUM_DEPTH and MINIMUM_DEPTH.
                                !     spoon - a similar shape to 'bowl', but with an vertical
                                !       wall at the southern face.
                                !     halfpipe - a zonally uniform channel with a half-sine
                                !       profile in the meridional direction.
                                !     benchmark - use the benchmark test case topography.
                                !     DOME - use a slope and channel configuration for the
                                !       DOME sill-overflow test case.
                                !     DOME2D - use a shelf and slope configuration for the
                                !       DOME2D gravity current/overflow test case.
                                !     seamount - Gaussian bump for spontaneous motion test case.
                                !     USER - call a user modified routine.
MINIMUM_DEPTH = 1.0             !   [m] default = 0.0
                                ! The minimum depth of the ocean.
MAXIMUM_DEPTH = 2000.0          !   [m]
                                ! The maximum depth of the ocean.
MASKING_DEPTH = -9999.0         !   [m] default = -9999.0
                                ! The depth below which to mask points as land points, for which all
                                ! fluxes are zeroed out. MASKING_DEPTH is ignored if negative.
APPLY_OBC_U_FLATHER_EAST = False !   [Boolean] default = False
                                ! Apply a Flather open boundary condition on the eastern
                                ! side of the global domain
APPLY_OBC_U_FLATHER_WEST = False !   [Boolean] default = False
                                ! Apply a Flather open boundary condition on the western
                                ! side of the global domain
APPLY_OBC_V_FLATHER_NORTH = False !   [Boolean] default = False
                                ! Apply a Flather open boundary condition on the northern
                                ! side of the global domain
APPLY_OBC_V_FLATHER_SOUTH = False !   [Boolean] default = False
                                ! Apply a Flather open boundary condition on the southern
                                ! side of the global domain
CHANNEL_CONFIG = "none"         ! default = "none"
                                ! A parameter that determines which set of channels are
                                ! restricted to specific  widths.  Options are:
                                !     none - All channels have the grid width.
                                !     global_1deg - Sets 16 specific channels appropriate
                                !       for a 1-degree model, as used in CM2G.
                                !     list - Read the channel locations and widths from a
                                !       text file, like MOM_channel_list in the MOM_SIS
                                !       test case.
                                !     file - Read open face widths everywhere from a
                                !       NetCDF file on the model grid.
ROTATION = "beta"               ! default = "2omegasinlat"
                                ! This specifies how the Coriolis parameter is specified:
                                !     2omegasinlat - Use twice the planetary rotation rate
                                !       times the sine of latitude.
                                !     betaplane - Use a beta-plane or f-plane.
                                !     USER - call a user modified routine.
F_0 = 6.49E-05                  !   [s-1] default = 0.0
                                ! The reference value of the Coriolis parameter with the
                                ! betaplane option.
BETA = 2.0E-11                  !   [m-1 s-1] default = 0.0
                                ! The northward gradient of the Coriolis parameter with
                                ! the betaplane option.
WRITE_GEOM = 1                  ! default = 1
                                ! If =0, never write the geometry and vertical grid files.
                                ! If =1, write the geometry and vertical grid files only for
                                ! a new simulation. If =2, always write the geometry and
                                ! vertical grid files. Other values are invalid.
INIT_LAYERS_FROM_Z_FILE = False !   [Boolean] default = False
                                ! If true, intialize the layer thicknesses, temperatures,
                                ! and salnities from a Z-space file on a latitude-
                                ! longitude grid.
THICKNESS_CONFIG = "phillips"   !
                                ! A string that determines how the initial layer
                                ! thicknesses are specified for a new run:
                                !     file - read interface heights from the file specified
                                !     thickness_file - read thicknesses from the file specified
                                !       by (THICKNESS_FILE).
                                !     uniform - uniform thickness layers evenly distributed
                                !       between the surface and MAXIMUM_DEPTH.
                                !     DOME - use a slope and channel configuration for the
                                !       DOME sill-overflow test case.
                                !     benchmark - use the benchmark test case thicknesses.
                                !     search - search a density profile for the interface
                                !       densities. This is not yet implemented.
                                !     circle_obcs - the circle_obcs test case is used.
                                !     DOME2D - 2D version of DOME initialization.
                                !     adjustment2d - TBD AJA.
                                !     sloshing - TBD AJA.
                                !     seamount - TBD AJA.
                                !     rossby_front - a mixed layer front in thermal wind balance.
                                !     USER - call a user modified routine.
HALF_STRAT_DEPTH = 0.25         !   [nondim] default = 0.5
                                ! The maximum depth of the ocean.
JET_WIDTH = 200.0               !   [km]
                                ! The width of the zonal-mean jet.
JET_HEIGHT = 300.0              !   [m]
                                ! The interface height scale associated with the
                                ! zonal-mean jet.
VELOCITY_CONFIG = "phillips"    ! default = "zero"
                                ! A string that determines how the initial velocities
                                ! are specified for a new run:
                                !     file - read velocities from the file specified
                                !       by (VELOCITY_FILE).
                                !     zero - the fluid is initially at rest.
                                !     uniform - the flow is uniform (determined by
                                !       parameters TORUS_U and TORUS_V).
                                !     rossby_front - a mixed layer front in thermal wind balance.
                                !     USER - call a user modified routine.
VELOCITY_IC_PERTURB_AMP = 0.001 !   [m s-1] default = 0.001
                                ! The magnitude of the initial velocity perturbation.
CONVERT_THICKNESS_UNITS = False !   [Boolean] default = False
                                ! If true,  convert the thickness initial conditions from
                                ! units of m to kg m-2 or vice versa, depending on whether
                                ! BOUSSINESQ is defined. This does not apply if a restart
                                ! file is read.
DEPRESS_INITIAL_SURFACE = False !   [Boolean] default = False
                                ! If true,  depress the initial surface to avoid huge
                                ! tsunamis when a large surface pressure is applied.
SPONGE = True                   !   [Boolean] default = False
                                ! If true, sponges may be applied anywhere in the domain.
                                ! The exact location and properties of those sponges are
                                ! specified via SPONGE_CONFIG.
SPONGE_CONFIG = "phillips"      ! default = "file"
                                ! A string that sets how the sponges are configured:
                                !     file - read sponge properties from the file
                                !       specified by (SPONGE_FILE).
                                !     DOME - use a slope and channel configuration for the
                                !       DOME sill-overflow test case.
                                !     USER - call a user modified routine.
SPONGE_RATE = 1.157407407407407E-06 !   [s-1] default = 1.157407407407407E-06
                                ! The rate at which the zonal-mean sponges damp.
!Total sponge columns = 0       !
                                ! The total number of columns where sponges are applied.
APPLY_OBC_U = False             !   [Boolean] default = False
                                ! If true, open boundary conditions may be set at some
                                ! u-points, with the configuration controlled by OBC_CONFIG
APPLY_OBC_V = False             !   [Boolean] default = False
                                ! If true, open boundary conditions may be set at some
                                ! v-points, with the configuration controlled by OBC_CONFIG

! === module MOM_MEKE ===
USE_MEKE = False                !   [Boolean] default = False
                                ! If true, turns on the MEKE scheme which calculates
                                ! a sub-grid mesoscale eddy kinetic energy budget.

! === module MOM_lateral_mixing_coeffs ===
USE_VARIABLE_MIXING = False     !   [Boolean] default = False
                                ! If true, the variable mixing code will be called.  This