! Generated by create_data.m
F_0 = -6.14673e-05
INPUTDIR = "INPUT/Walvis"
