!********+*********+*********+*********+*********+*********+*********+*
!*   This file determines the adjustable run-time parameters for the  *
!* Generalized Ocean Layer Dynamics (MOM) ocean model.  Where         *
!* appropriate, MKS units are used.                                   *
!********+*********+*********+*********+*********+*********+*********+*
! >>> global test case <<<

!  Specify properties of the physical domain.
OMEGA = 7.2921e-5               !   The rotation rate of the earth in s-1.
ROTATION = "2omegasinlat"       !   Rotation approximation (2omegasinlat,
                                !  betaplane or USER).
G_EARTH = 9.80                  !    G_EARTH is the Earth's gravitational
                                !  acceleration, in m s-2.
GRID_CONFIG = "mosaic"          !    Method for defining horizontal grid
                                !  = file|cartesian|spherical|mercator
                                !  file - read grid from file "GRID_FILE"
                                !  cartesian - a Cartesian grid
                                !  spherical - a spherical grid
                                !  mercator  - a Mercator grid
GRID_FILE = "ocean_hgrid.nc"
                                !    Name of file to read horizontal grid data
TOPO_CONFIG = "file"            !   Method for defining topography
                                !  file - read topographic information from file
                                !  (TOPO_FILE).
                                !  flat - flat bottom set to MAXIMUM_DEPTH.
                                !  bowl - bowl like basin using MAXIMUM_DEPTH and
                                !  MINIMUM_DEPTH.
                                !  spoon - similar to bowl except that southern
                                !  face of the "bowl" is open.
                                !  DOME - sill-overflow test case basin.
                                !  USER - user defined
TOPO_FILE = "topog.nc"          !    If topography is to be set externally,
TOPO_VARNAME = "depth"
                                !  then this is the file to use.
MAXIMUM_DEPTH = 6000.0          !    The maximum depth of the ocean in m.
MINIMUM_DEPTH = 0.5             !    The minimum ocean depth, in m. Anything
                                !  shallower than this depth is assumed to be on
                                !  land, and all fluxes are masked out.
CHANNEL_CONFIG = "global_1deg"  ! A string which determines which
                                !  set of channels are restricted to specific
                                !  widths.  The default, "none", has no
                                !  partially restricted channels.

COORD_CONFIG = "file"           !   How layers are to be defined:
                                !  file - read coordinate information from file
                                !  (COORD_FILE).
                                !  ts_ref - use reference temperature
                                !  and salinity (T_REF and S_REF) to determine
                                !  surface density and GINT calculate internal
                                !  densities.
                                !  gprime - use reference density (RHO_0) for
                                !  surface density and GINT calculate internal
                                !  densities.
                                !  ts_profile - use profiles of temperature
                                !  and salinity (read from COORD_FILE) to determine
                                !  surface density and internal densities.
                                !  USER - user defined routine
COORD_FILE = "GOLD_IC.2010.11.15.nc"
                                !    If the vertical coordinate is defined by a
                                !  file, use this file.
GFS = 9.80                      !    The reduced gravity at the free
                                !  surface, in m s-2.

THICKNESS_CONFIG = "file"       !    Method for defining initial layer thicknesses
                                !  file - read thickness information from file
                                !  (THICKNESS_FILE).
                                !  uniform - thickness is distributed uniformly
                                !  and equally between layers.
                                !  search - thickness determined by search
                                !  through initial temperature and salinity space
                                !  of a fixed coordinate data set (not yet
                                !  implemented)
                                !  USER - user defined
THICKNESS_FILE = "GOLD_IC.2010.11.15.nc"
                                !    If the Method for defining initial layer
                                !  thicknesses is "file", then this is the file
                                !  to use.
ADJUST_THICKNESS = True         !    All mass below the bottom is removed if the
                                !  topography is shallower than the input file
                                !  would indicate.

VELOCITY_CONFIG = "zero"        !    Method for defining initial layer velocities
                                !  file - read velocity information from file.
                                !  zero - zero velocities everywhere.
                                !  USER - user defined.

!  Specify the numerical domain.
NXTOT = 360                     !    NXTOT and NYTOT are the number of thickness
NYTOT = 210                     !  grid points in the zonal and meridional
                                !  directions of the physical domain.
NZ = 63                         !    The number of layers.
NXHALO = 4                      !    NXHALO and NYHALO are the number of halo
NYHALO = 4                      !  points on each side in the x- and y-directions.
                                !  If static memory allocation is used, these
                                !  must match the values of NIHALO_ and NJHALO_
                                !  in MOM_memory.h.
NXPROC_IO = 1                   !    The number of processors used for I/O in the
                                !  x-direction, or 0 to equal NXPROC.  NXPROC_IO
                                !  must be a factor of NXPROC.
NYPROC_IO = 1                   !    The number of processors used for I/O in the
                                !  y-direction, or 0 to equal NYPROC.  NYPROC_IO
                                !  must be a factor of NYPROC.

REENTRANT_X = True              !    If defined, the domain is zonally reentrant.
REENTRANT_Y = False             !    If defined, the domain is meridionally
                                !  reentrant.
TRIPOLAR_N = True               !    Use tripolar connectivity at the northern
                                !  edge of the domain.  With TRIPOLAR_N, NXTOT
                                !  must be even.

DEBUG = False                   !    If true, write out verbose debugging data.
DEBUG_TRUNCATIONS = False       !    If true, calculate all diagnostics that are
                                !  useful for debugging truncations.
SEND_LOG_TO_STDOUT = False      !    If true write out log information to stdout.

!  Specify the time integration scheme.
SPLIT = True                    !    Use the split time stepping if defined.
DT_FORCING = 7200.0             !    The time step for changing forcing or
                                !  writing certain diagnostics, in s.
DT_THERM = 7200.0               !    The thermodynamic time step, in s.  DT_THERM
                                !  should be an integer multiple of DT and less
                                !  than or equal to DT_FORCING.
DT = 3600.0                     !    The (baroclinic) dynamics time step, in s.
                                !  DT should be an integer fraction of DT_FORCING.
DTBT = -0.95                    !    The barotropic time step, in s. DTBT is only
                                !  used with the split explicit time stepping.
                                !  To set the time step automatically based
                                !  the maximum stable value use 0, or a negative
                                !  value gives the fraction of the stable value.
                                !  The value of DTBT that will actually be used
                                !  is an integer fraction of DT, rounding down.
DT_BT_FILTER = -0.25            !    A time-scale for filtering BT variables,
                                !  in s if positive, or as a fraction of DT if
                                !  negative.
DTBT_RESET_PERIOD = 0.0         !    The period between recalculations of DTBT
                                !  of DTBT (if DTBT <= 0), in seconds.  If
                                !  DTBT_RESET_PERIOD is negative, DTBT is set
                                !  based only on information available at
                                !  initialization.  If dynamic, DTBT will be set
                                !  at least every forcing time step, and if 0,
                                !  every dynamics time step.
BE = 0.6                        !    BE determines whether the neutral baroclinic
                                !  time stepping scheme (0.5) or a backward Euler
                                !  scheme (1) is used.  BE may be from 0.5 to 1,
                                !  but instability may occur near 0.5.
BEBT = 0.2                      !    BEBT determines whether the barotropic time
                                !  stepping uses the forward-backward time-
                                !  stepping scheme or a backward Euler scheme.
                                !  BEBT is valid in the range from 0 (for a
                                !  forward-backward treatment of nonrotating
                                !  gravity waves) to 1 (for a backward Euler
                                !  treatment). In practice, BEBT must be greater
                                !  than about 0.05.

!  Specify properties of the I/O and length of the integration.
TIMEUNIT = 86400.0              !    The time unit in seconds for the following
                                !  fields.
DAYMAX = 5.0                    !    The final day of the simulation.
ENERGYSAVEDAYS = 1.0            !    The number of days between saves of the
                                !  energies of the run.
ENERGYFILE = "timestats"        !    The file to use to save the energies.
RESTARTFILE = "MOM.res"        !    The name of the restart file.
RESTINT = 365.0                 !    The number of days between saves of the
                                !  restart file.  Use a value that is larger than
                                !  DAYMAX not to save incremental restart files
                                !  within a run.  Use 0 not to save restart files
                                !  at all.
PARALLEL_RESTARTFILES = False   !    If defined, each processor writes its own
                                !  restart file, otherwise a single restart file
                                !  is generated.
LARGE_FILE_SUPPORT = True       !    If true, use the file-size limits with
                                !  NetCDF large file support (4Gb).
RESTART_CONTROL = 3             !    RESTART_CONTROL determines which restart
                                !  files are written - Add 2 (bit 1) for a time-
                                !  stamped restart file, and odd (bit 0) for a
                                !  non-time-stamped file.  A restart will be
                                !  saved at the end of the run segment for any
                                !  non-negative value.
SAVE_INITIAL_CONDS = True       !    If defined, the inital conditions are
                                !  written to IC_OUTPUT_FILE at the start of a
                                !  new run.
IC_OUTPUT_FILE = "GOLD_IC"      !  The name-root of a file into which the
                                !  initial conditions are written for a new run.
ALWAYS_WRITE_GEOM = False       !    If ALWAYS_WRITE_GEOM is defined, the
                                !  ocean_geometry file is written anew with each
                                !  run segment.  Otherwise it is only written for
                                !  a new run.  The default is defined.
Z_OUTPUT_GRID_FILE = "OM3_zgrid.nc"
                                !    The file that specifies the vertical grid
                                !  for depth-space diagnostics.
MIN_Z_DIAG_INTERVAL = 2.16e4    ! The minimum amount of time in seconds between
                                !  calculations of depth-space diagnostics.
                                !  Making this larger than DT_THERM reduces the
                                !  performance penalty of regridding to depth
                                !  online.

MAXCPU = 28800.0                !   The maximum amount of cpu time per processor
                                !  for which MOM should run before saving a
                                !  restart file and quitting with a return value
                                !  that indicates that a further execution is
                                !  required to complete the simulation.  If
                                !  automatic restarts are not desired, use a
                                !  negative value for MAXCPU.  MAXCPU has units
                                !  of wall-clock seconds. (i.e. CPU time limit is
                                !  larger by a factor of the number of processors
                                !  used.
INPUTDIR = "INPUT"
                                !    INPUTDIR is a directory in which NetCDF
                                !  input files might be found.

!  Specify the horizontal (along-isopycnal) viscosity.
LAPLACIAN = True                !    LAPLACIAN is defined to use a Laplacian
                                !  horizontal viscosity.
BIHARMONIC = True               !    BIHARMONIC is defined to use a biharmonic
                                !  horizontal viscosity.  BIHARMONIC may be used
                                !  with LAPLACIAN, and it is automatically
                                !  defined if LAPLACIAN is undefined.
BOUND_KH = True                 !    If BOUND_KH is defined, the Laplacian
                                !  coefficient is locally limited to guarantee
                                !  stability.
BOUND_AH = True                 !    If BOUND_AH is defined, the biharmonic
                                !  coefficient is locally limited to guarantee
                                !  stability.
BETTER_BOUND_KH = True          !    If BETTER_BOUND_KH is defined, use more
                                !  careful bounds in limiting KH for stability.
BETTER_BOUND_AH = True          !    If BETTER_BOUND_AH is defined, use more
                                !  careful bounds in limiting AH for stability.
KH = 0.0                        !    The Laplacian horizontal viscosity, in
                                !  m2 s-1.  KH is used if LAPLACIAN is defined.
AH = 0.0                        !    The biharmonic horizontal viscosity, in
                                !  m4 s-1.  AH is used if BIHARMONIC is defined.
KH_VEL_SCALE = 0.01             !    The velocity scale which is multiplied by
                                !  the grid spacing to calculate the Laplacian
                                !  viscosity ,if LAPLACIAN is defined, in m s-1.
                                !  The final viscosity is the largest of this
                                !  scaled viscosity, the Smagorinsky viscosity
                                !  and KH.
AH_VEL_SCALE = 0.05             !    The velocity scale which is multiplied by
                                !  the cube of the grid spacing to calculate the
                                !  biharmonic viscosity if BIHARMONIC is defined,
                                !  in units of m s-1. The final viscosity is
                                !  the largest of this scaled viscosity, the
                                !  Smagorinsky viscosity and AH.
RESOLN_SCALED_KH = True         !    If true, the lateral viscosity is scaled
                                !  away when the first baroclinic deformation
                                !  radius is well resolved.
KH_RES_SCALE_COEF = 1.0         !    A coefficient that determines how Kh is
                                !  scaled away, as F = 1/(1 + coef*Rd2/dx2)
SMAGORINSKY_KH = False          !    If defined, use Smagorinsky's nonlinear eddy
                                !  viscosity.  KH is the background.
SMAG_LAP_CONST = 0.15           !    The nondimensional Laplacian Smagorinsky
                                !  constant.  Often 0.15.
SMAGORINSKY_AH = True           !    If defined, use a biharmonic form of
                                !  Smagorinsky's nonlinear eddy viscosity.
SMAG_BI_CONST = 0.06            !    The nondimensional biharmonic Smagorinsky
                                !  constant.  Often 0.015.
NOSLIP = False                  !    This should True for no slip
                                !  boundary conditions False for free
                                !  slip boundary conditions (the default). The
                                !  implementation of the free slip boundary
                                !  conditions on a C-grid is much cleaner than
                                !  the no slip boundary conditions.  The use of
                                !  free slip b.c.s is strongly encouraged.  The
                                !  no slip b.c.s are not implemented with the
                                !  biharmonic viscosity.

!  Specify the horizontal interface depth (akin to Gent-McWilliams) diffusion.
THICKNESSDIFFUSE = True         !    If THICKNESSDIFFUSE is defined, interfaces
                                !  are diffused with a coefficient of KHTH.
THICKNESSDIFFUSE_FIRST = True   !    If THICKNESSDIFFUSE_FIRST is defined, do
                                !  thickness diffusion before dynamics.
RESOLN_SCALED_KHTH = True       !    If defined, the interface depth diffusivity
                                !  is scaled away when the first baroclinic
                                !  deformation radius is well resolved.
KHTH_SLOPE_MAX = 1.0e-2         !  A slope beyond which the calculated isopycnal
                                !  slope is not reliable and is scaled away.
KHTH = 10.0                     ! KHTH is the nominal interface depth diffusivity
                                ! in m2 s-1.
KHTH_MIN = 0.0                  ! Minimum thickness diffusivity in m2 s-1.
KHTH_MAX = 900.0                ! Maximum thickness diffusivity in m2 s-1.
KHTH_SLOPE_CFF = 0.25           ! Non-dimensional coefficient in Visbeck formula.
VISBECK_L_SCALE = 30.e3         ! Fixed length scale for Visbeck formula (m).
VARMIX_KTOP = 6                 ! Layer # at which to start vertical integration of
                                ! S*N for purposes of finding Eady growth rate
USE_VARIABLE_MIXING = True      ! If defined, forces the variable mixing code to
                                ! be called. This allows diagnostics to be created
                                ! even if the scheme is not used. This flag is
                                ! unused if the coefficients are non-zero.
MIXEDLAYER_RESTRAT = True       !    If true, a density-gradient dependent
                                !  re-stratifying flow is imposed in the mixed
                                !  layer.
FOX_KEMPER_ML_RESTRAT_COEF = 20.0
                                !     A nondimensional coefficient that is
                                !  proportional to the ratio of the deformation
                                !  radius to the dominant lengthscale of the
                                !  submesoscale mixed layer instabilities, times
                                !  the minimum of the ratio of mesoscale eddy
                                !  kinetic energy to the large-scale geostrophic
                                !  kinetic energy or 1 plus the square of the
                                !  grid spacing over the deformation radius, as
                                !  detailed in the work of Fox-Kemper et al.

!  Specify the scheme for the Coriolis and momentum advection terms.
CORIOLIS_SCHEME = "SADOURNY75_ENERGY"
                                ! Selects the discretization of Coriolis terms.
                                ! Possible values are:
                                !   SADOURNY75_ENERGY - Sadourny's energy
                                !                       conserving scheme
                                !   ARAKAWA_HSU90     - Arakawa and Hsu's scheme
                                !   ROBUST_ENSTRO     - A pseudo-enstrophy
                                !                       conserving scheme, robust
                                !                       to vanishing thickness
KE_SCHEME = "KE_ARAKAWA"        !    Selects the discretization for the kinetic
                                !  energy in the Bernoulli function.  Possible
                                !  values are KE_ARAKAWA, KE_SIMPLE_GUDONOV,
                                !  and KE_GUDONOV.  KE_ARAKAWA is the default.
BOUND_CORIOLIS = True           !    If BOUND_CORIOLIS is defined, the Coriolis
                                !  terms at u points are bounded by the four
                                !  estimates of (f+rv)v from the four neighboring
                                !  v points, and similarly at v points. This
                                !  option would have no effect on the SADOURNY
                                !  scheme if it were possible to use centered
                                !  difference thickness fluxes.  In addition, if
                                !  SMAGORINSKY_AH is used, the biharmonic
                                !  viscosity is modified to include a term that
                                !  scales quadratically with the velocity
                                !  shears.
CORIOLIS_EN_DIS = False         !    If CORIOLIS_EN_DIS is defined, two estimates
                                !  of the thickness fluxes are used to estimate
                                !  the Coriolis term, and the one that dissipates
                                !  energy relative to the other one is used.

!  Specify the scheme for the continuity solver.
CONTINUITY_SCHEME = "PPM"       !  CONTINUTITY_SCHEME specifies the scheme used
                                !  for the continuity solver. PPM is currently
                                !  the only option, in which case a positive-
                                !  definite piecewise parabolic reconstruction
                                !  is used for the continuity solver.
MONOTONIC_CONTINUITY = False    !    If true, the PPM continuity scheme uses the
                                !  Colella and Woodward monotonic limiter.  The
                                !  default is to use a simple positive definite
                                !  limiter.
ETA_TOLERANCE = 1e-6            !    The tolerance, in m, for the differences
                                !  between the barotropic and baroclinic
                                !  estimates of the sea surface height due to
                                !  the fluxes through each face.  The total
                                !  tolerance for SSH is 4 times this value.  The
                                !  default is 0.5*NZ*EPSILON, and this should not
                                !  be set less than about 10^-15*MAXIMUM_DEPTH.
VELOCITY_TOLERANCE = 1.0e-4     ! The tolerance for barotropic velocity
                                ! discrepancies between the barotropic solution
                                ! and the sum of the layer thicknesses, in m s-1.
CONTINUITY_CFL_LIMIT = 0.5      ! This is the CFL limit for corrections with
                                ! the PPM continuity scheme.
CONT_PPM_BETTER_ITER = True     !    If true, use the velocity change tolerance
                                !  to determine when to keep iterating with the
                                !  PPM continuity scheme.
CONT_PPM_USE_VISC_REM_MAX = True ! If true, use more appropriate limiting
                                ! bounds for corrections in viscous columns.

!  Specify the scheme for the vertical viscosity.
HARMONIC_VISC = False           !    If defined, use the harmonic mean thickness
                                !  for calculating the vertical viscosity.

!  Specify the scheme for the pressure gradient accelerations.
ANALYTIC_FV_PGF = True          !    If defined the pressure gradient forces
                                !  are calculated with a finite volume form that
                                !  analytically integrates the equations of state
                                !  in pressure to avoid any possibility of
                                !  numerical thermobaric instability.

!  Specify the scheme for the barotropic solver.
FLUX_BT_COUPLING = False        !    If defined, use mass fluxes to ensure
                                !  consistency between the baroclinic and
                                !  barotropic modes.
RESCALE_BT_FACE_AREAS = False   !    If true, the face areas used by the
                                !  barotropic solver are rescaled to reflect the
                                !  open face areas of the interior layers.  This
                                !  probably requires FLUX_BT_COUPLING to work,
                                !  but does not apply with USE_BT_CONT_TYPE.
READJUST_BT_TRANS = False       !    If defined, make a barotropic adjustment to
                                !  the layer velocities after the thermodynamic
                                !  part of the step.
USE_BT_CONT_TYPE = True         !    If defined, use a structure with elements
                                ! that describe effective face areas from the
                                ! summed layer continuity solvers as a function
                                ! the barotropic flow in coupling between the
                                ! barotropic and baroclinic flow.
BT_USE_LAYER_FLUXES = True      !   If true, linearize the continuity equation
                                ! in the barotropic solver about the layer
                                ! fluxes.  This may require USE_BT_CONT_TYPE and
                                ! BT_THICK_SCHEME FROM_BT_CONT to work properly.
BOUND_BT_CORRECTION = True      !    If defined, the corrective pseudo mass-
                                !  fluxes into the barotropic solver are limited
                                !  to values that require less than 0.1*MAXVEL to
                                !  be accommodated.
BT_PROJECT_VELOCITY = True      !    If true, project the velocity forward in
                                !  time, simplifying the barotropic algorithm.
APPLY_BT_DRAG = True            !    If defined, bottom drag is applied within
                                !  the barotropic solver.  The default is true.
BT_STRONG_DRAG = True           !    If defined, use a stronger estimate of the
                                ! retarding effects of strong bottom drag, by
                                ! making it implicit with the barotropic time-
                                ! step instead of implicit with the baroclinic
                                ! time-step and dividing by the number of
                                ! barotropic steps.
BT_THICK_SCHEME = "FROM_BT_CONT" ! A string describing the scheme that is used
                                ! to set the open face areas used for barotropic
                                ! transport and the relative weights of the layer
                                ! accelerations. Valid values are:
                                ! ARITHMETIC - arithmetic mean layer thicknesses
                                ! HARMONIC - harmonic mean layer thicknesses
                                ! HYBRID (the default) - use arithmetic means for
                                !    layers above the shallowest bottom, the
                                !    harmonic mean for layers below, and a weighted
                                !    average for layers that straddle that depth
                                ! FROM_BT_CONT - use the average thicknesses kept
                                !    it the h_u and h_v fields of BT_cont_type.
NONLINEAR_BT_CONTINUITY = False !   If defined, use nonlinear transports in the
                                !  barotropic continuity equation.  This does
                                !  not apply with USE_BT_CONT_TYPE.

!  Specify the properties of the active tracers and Eqn of state.
ENABLE_THERMODYNAMICS = True    !    Temperature and salinity are used as state
                                !  variables if ENABLE_THERMODYNAMICS is defined.
TS_CONFIG = "file"              !   Method for defining temperature (file or USER)
TS_FILE = "GOLD_IC.2010.11.15.nc"
                                !   If temperature is defined by a file, this is
                                !  the file to use.
FRAZIL = True                   !    If FRAZIL is defined, water freezes if it
                                !  gets colder than the freezing point, and the
                                !  accumulated heat deficit is returned in the
                                !  surface state.