# Blank file in which we can put "overrides" for parameters
USE_KPP = False
