! Generated by create_data.m
F_0 = 0
INPUTDIR = "INPUT/COARE"
