# specific humidity for moist runs
## check if "profile_type", "fixed", "surface_value=3.e-6" is needed for coupled model
 "TRACER", "atmos_mod", "sphum" 
           "longname",     "specific humidity"
           "units",        "kg/kg" 
	   "profile_type", "fixed", "surface_value=3.e-6" /
# prognostic cloud scheme tracers
  "TRACER", "atmos_mod", "liq_wat"
            "longname",     "cloud liquid specific humidity"
            "units",        "kg/kg" /
  "TRACER", "atmos_mod", "ice_wat"
            "longname",     "cloud ice water specific humidity"
            "units",        "kg/kg" /
  "TRACER", "atmos_mod", "cld_amt"
            "longname",     "cloud fraction"
            "units",        "none" /
 "TRACER", "land_mod",     "sphum"
           "longname",     "specific humidity"
           "units",        "kg/kg" /
