!********+*********+*********+*********+*********+*********+*********+*
!*   This file determines the adjustable run-time parameters for the  *
!* Modular Ocean Model (MOM), versions 6 and later.  Where            *
!* appropriate, MKS units are used.                                   *
!********+*********+*********+*********+*********+*********+*********+*

!SYMMETRIC_MEMORY_ = True       

DAYMAX = 36500.0


!  Specify properties of the physical domain.


OMEGA = 7.2921e-5               !   The rotation rate of the earth in s-1.
ROTATION = "2omegasinlat"       !   Rotation approximation (2omegasinlat,
                                !   betaplane or USER).
RAD_EARTH = 6.378e6             !   The radius of the earth in m.
G_EARTH = 9.80                  !   G_EARTH is the Earth's gravitational
                                !   acceleration, in m s-2.
GRID_CONFIG = "mosaic"          !   Method for defining horizontal grid
                                !  = file|cartesian|spherical|mercator
                                !  file - read grid from file "GRID_FILE"
                                !  cartesian - a Cartesian grid
                                !  spherical - a spherical grid
                                !  mercator  - a Mercator grid
GRID_FILE = "supergrid.nc"
                                !    Name of file to read horizontal grid data
TOPO_CONFIG = "file"            !   Method for defining topography
                                !  file - read topographic information from file
                                !  (TOPO_FILE).
                                !  flat - flat bottom set to MAXIMUM_DEPTH.
                                !  bowl - bowl like basin using MAXIMUM_DEPTH and
                                !  MINIMUM_DEPTH.
                                !  spoon - similar to bowl except that southern
                                !  face of the "bowl" is open.
                                !  DOME - sill-overflow test case basin.
                                !  USER - user defined
TOPO_FILE = "topog_ocean.nc"    !    If topography is to be set externally,
TOPO_VARNAME = "depth"
                                !  then this is the file to use.
MAXIMUM_DEPTH = 6500.0          !    The maximum depth of the ocean in m.
MINIMUM_DEPTH = 9.9             !    The minimum ocean depth, in m. Anything
                                !  shallower than this depth is assumed to be on
                                !  land, and all fluxes are masked out.
CHANNEL_CONFIG = "list"         ! A string which determines which
                                !  set of channels are restricted to specific
                                !  widths.  The default, "none", has no
                                !  partially restricted channels.

COORD_CONFIG = "file"           !   How layers are to be defined:
                                !  file - read coordinate information from file
                                !  (COORD_FILE).
                                !  ts_ref - use reference temperature
                                !  and salinity (T_REF and S_REF) to determine
                                !  surface density and GINT calculate internal
                                !  densities.
                                !  gprime - use reference density (RHO_0) for
                                !  surface density and GINT calculate internal
                                !  densities.
                                !  ts_profile - use profiles of temperature
                                !  and salinity (read from COORD_FILE) to determine
                                !  surface density and internal densities.
                                !  USER - user defined routine
COORD_FILE = "Vertical_coordinate.nc"
                                !    If the vertical coordinate is defined by a
                                !  file, use this file.
GFS = 9.80                      !    The reduced gravity at the free
                                !  surface, in m s-2.
GINT = 1.2e-3                   !    The nominal reduced gravity of the internal
                                !  interfaces for idealized models, in m s-2.

INIT_LAYERS_FROM_Z_FILE = True  ! interpolate online from z-space potential temperature
                                ! /salinity file.

TEMP_SALT_Z_INIT_FILE = "WOA05_pottemp_salt.nc"
Z_INIT_FILE_PTEMP_VAR = "PTEMP"
Z_INIT_FILE_SALT_VAR = "SALT"
FIT_TO_TARGET_DENSITY_IC = False
Z_INIT_HOMOGENIZE = True
USE_OLD_HINTERP = False

ADJUST_THICKNESS = True

VELOCITY_CONFIG = "zero"        !    Method for defining initial layer velocities
                                !  file - read velocity information from file.
                                !  zero - zero velocities everywhere.
                                !  USER - user defined.

!  Specify the numerical domain.
NIGLOBAL = 172                  !    NIGLOBAL and NJGLOBAL are the number of thickness
NJGLOBAL = 219                  !  grid points in the zonal and meridional
                                !  directions of the physical domain.
NK = 63                         !    The number of layers.
NIHALO = 4                      !    NIHALO and NJHALO are the number of halo
NJHALO = 4                      !  points on each side in the x- and y-directions.
                                !  If static memory allocation is used, these
                                !  must match the values of NIHALO_ and NJHALO_
                                !  in MOM_memory.h.
NIPROC_IO = 13                   !    The number of processors used for I/O in the
                                !  x-direction, or 0 to equal NIPROC.  NIPROC_IO
                                !  must be a factor of NIPROC.
NJPROC_IO = 2                   !    The number of processors used for I/O in the
                                !  y-direction, or 0 to equal NJPROC.  NJPROC_IO
                                !  must be a factor of NJPROC.

NIPROC = 12                     ! The number of processors used in the x and y directions
                                ! respectively.
NJPROC = 20

REENTRANT_X = False             !    If defined, the domain is zonally reentrant.
REENTRANT_Y = False             !    If defined, the domain is meridionally
                                !  reentrant.
TRIPOLAR_N = True               !    Use tripolar connectivity at the northern
                                !  edge of the domain.  With TRIPOLAR_N, NIGLOBAL
                                !  must be even.
DEBUG = False                   !    If true, write out verbose debugging data.
DEBUG_TRUNCATIONS = False       !    If true, calculate all diagnostics that are
                                !  useful for debugging truncations.
SEND_LOG_TO_STDOUT = False      !    If true write out log information to stdout.

!  Specify the time integration scheme.
SPLIT = True                    !    Use the split time stepping if defined.
DT_FORCING = 3600.0             !    The time step for changing forcing or
                                !  writing certain diagnostics, in s.
DT_THERM = 1200.0               !    The thermodynamic time step, in s.  DT_THERM
                                !  should be an integer multiple of DT and less
                                !  than or equal to DT_FORCING.
DT = 300.0                      !    The (baroclinic) dynamics time step, in s.
                                !  DT should be an integer fraction of DT_FORCING.
DT_BT_FILTER = 300.            !    Time-scale for filtering BT variables, in s.
DTBT = -0.9                     !    The barotropic time step, in s. DTBT is only
                                !  used with the split explicit time stepping.
                                !  To set the time step automatically based
                                !  the maximum stable value use 0, or a negative
                                !  value gives the fraction of the stable value.
                                !  The value of DTBT that will actually be used
                                !  is an integer fraction of DT, rounding down.
DTBT_RESET_PERIOD = 0.0         !    The period between recalculations of DTBT
                                !  of DTBT (if DTBT <= 0), in seconds.  If
                                !  DTBT_RESET_PERIOD is negative, DTBT is set
                                !  based only on information available at
                                !  initialization.  If dynamic, DTBT will be set
                                !  at least every forcing time step, and if 0,
                                !  every dynamics time step.
BE = 0.6                        !    BE determines whether the neutral baroclinic
                                !  time stepping scheme (0.5) or a backward Euler
                                !  scheme (1) is used.  BE may be from 0.5 to 1,
                                !  but instability may occur near 0.5.
BEBT = 0.2                      !    BEBT determines whether the barotropic time
                                !  stepping uses the forward-backward time-
                                !  stepping scheme or a backward Euler scheme.
                                !  BEBT is valid in the range from 0 (for a
                                !  forward-backward treatment of nonrotating
                                !  gravity waves) to 1 (for a backward Euler
                                !  treatment). In practice, BEBT must be greater
                                !  than about 0.05.
ETA_TOLERANCE = 1e-6            !    The tolerance, in m, for the differences
                                !  between the barotropic and baroclinic
                                !  estimates of the sea surface height due to
                                !  the fluxes through each face.  The total
                                !  tolerance for SSH is 4 times this value.  The
                                !  default is 0.5*NK*EPSILON, and this should not
                                !  be set less than about 10^-15*MAXIMUM_DEPTH.
ETA_TOLERANCE_AUX = 1e-3        !    The equivalent to ETA_TOLERANCE for the
                                !  calculation of auxiliary velocities, in m.


!  Specify properties of the I/O and length of the integration.
TIMEUNIT = 86400.0              !    The time unit in seconds for the following
                                !  fields.
ENERGYSAVEDAYS = 10.0            !    The number of days between saves of the
                                !  energies of the run.
ENERGYFILE = "timestats"        !    The file to use to save the energies.
RESTARTFILE = "MOM.res"        !    The name of the restart file.
RESTINT = 365.0                 !    The number of days between saves of the
                                !  restart file.  Use a value that is larger than
                                !  DAYMAX not to save incremental restart files
                                !  within a run.  Use 0 not to save restart files
                                !  at all.
PARALLEL_RESTARTFILES = True    !    If defined, each processor writes its own
                                !  restart file, otherwise a single restart file
                                !  is generated.
LARGE_FILE_SUPPORT = True       !    If true, use the file-size limits with
                                !  NetCDF large file support (4Gb).
RESTART_CONTROL = 1             !    RESTART_CONTROL determines which restart
                                !  files are written - Add 2 (bit 1) for a time-
                                !  stamped restart file, and odd (bit 0) for a
                                !  non-time-stamped file.  A restart will be
                                !  saved at the end of the run segment for any
                                !  non-negative value.
SAVE_INITIAL_CONDS = True       !    If defined, the inital conditions are
                                !  written to IC_OUTPUT_FILE at the start of a
                                !  new run.
IC_OUTPUT_FILE = "MOM_IC"       !  The name-root of a file into which the
                                !  initial conditions are written for a new run.

Z_OUTPUT_GRID_FILE = "zgrid.nc"
                                !    The file that specifies the vertical grid
                                !  for depth-space diagnostics.
MIN_Z_DIAG_INTERVAL = 2.16e4    ! The minimum amount of time in seconds between
                                !  calculations of depth-space diagnostics.
                                !  Making this larger than DT_THERM reduces the
                                !  performance penalty of regridding to depth
                                !  online.

MAXCPU = 86400.0                !   The maximum amount of cpu time per processor
                                !  for which MOM should run before saving a
                                !  restart file and quitting with a return value
                                !  that indicates that a further execution is
                                !  required to complete the simulation.  If
                                !  automatic restarts are not desired, use a
                                !  negative value for MAXCPU.  MAXCPU has units
                                !  of wall-clock seconds. (i.e. CPU time limit is
                                !  larger by a factor of the number of processors
                                !  used.
INPUTDIR = "INPUT"
                                !    INPUTDIR is a directory in which NetCDF
                                !  input files might be found.

!  Specify the horizontal (along-isopycnal) viscosity.
LAPLACIAN = True                !    LAPLACIAN is defined to use a Laplacian
                                !  horizontal viscosity.
BIHARMONIC = True               !    BIHARMONIC is defined to use a biharmonic
                                !  horizontal viscosity.  BIHARMONIC may be used
                                !  with LAPLACIAN, and it is automatically
                                !  defined if LAPLACIAN is undefined.
BOUND_KH = True                 !    If BOUND_KH is defined, the Laplacian
                                !  coefficient is locally limited to guarantee
                                !  stability.
BOUND_AH = True                 !    If BOUND_AH is defined, the biharmonic
                                !  coefficient is locally limited to guarantee
                                !  stability.
BETTER_BOUND_KH = True          !    If BETTER_BOUND_KH is defined, use more
                                !  careful bounds in limiting KH for stability.
BETTER_BOUND_AH = True          !    If BETTER_BOUND_AH is defined, use more
                                !  careful bounds in limiting AH for stability.
KH = 0.0                        !    The Laplacian horizontal viscosity, in
                                !  m2 s-1.  KH is used if LAPLACIAN is defined.
AH = 0.0                        !    The biharmonic horizontal viscosity, in
                                !  m4 s-1.  AH is used if BIHARMONIC is defined.
KH_VEL_SCALE = 0.0              !    The velocity scale which is multiplied by
                                !  the grid spacing to calculate the Laplacian
                                !  viscosity ,if LAPLACIAN is defined, in m s-1.
                                !  The final viscosity is the largest of this
                                !  scaled viscosity, the Smagorinsky viscosity
                                !  and KH.
AH_VEL_SCALE = 0.025            !    The velocity scale which is multiplied by
                                !  the cube of the grid spacing to calculate the
                                !  biharmonic viscosity if BIHARMONIC is defined,
                                !  in units of m s-1. The final viscosity is
                                !  the largest of this scaled viscosity, the
                                !  Smagorinsky viscosity and AH.
RESOLN_SCALED_KH = True         !    If true, the lateral viscosity is scaled
                                !  away when the first baroclinic deformation
                                !  radius is well resolved.
KH_RES_SCALE_COEF = 1.0         !    A coefficient that determines how Kh is
                                !  scaled away, as F = 1/(1 + coef*Rd2/dx2)
SMAGORINSKY_KH = True           !    If defined, use Smagorinsky's nonlinear eddy
                                !  viscosity.  KH is the background.
SMAG_LAP_CONST = 0.01           !    The nondimensional Laplacian Smagorinsky
                                !  constant.  Often 0.15.
SMAGORINSKY_AH = True           !    If defined, use a biharmonic form of
                                !  Smagorinsky's nonlinear eddy viscosity.
SMAG_BI_CONST = 0.06            !    The nondimensional biharmonic Smagorinsky
                                !  constant.  Often 0.015.
NOSLIP = False                  !    This should True for no slip
                                !  boundary conditions False for free
                                !  slip boundary conditions (the default). The
                                !  implementation of the free slip boundary
                                !  conditions on a C-grid is much cleaner than
                                !  the no slip boundary conditions.  The use of
                                !  free slip b.c.s is strongly encouraged.  The
                                !  no slip b.c.s are not implemented with the
                                !  biharmonic viscosity.

!  Specify the horizontal interface depth (akin to Gent-McWilliams) diffusion.
THICKNESSDIFFUSE = True         !    If THICKNESSDIFFUSE is defined, interfaces
                                !  are diffused with a coefficient of KHTH.
THICKNESSDIFFUSE_FIRST = True   !    If THICKNESSDIFFUSE_FIRST is defined, do
                                !  thickness diffusion before dynamics.
RESOLN_SCALED_KHTH = True       !    If defined, the interface depth diffusivity
                                !  is scaled away when the first baroclinic
                                !  deformation radius is well resolved.
KHTH_SLOPE_MAX = 1.0e-2         !  A slope beyond which the calculated isopycnal
                                !  slope is not reliable and is scaled away.
KHTH = 1.0                      ! KHTH is the nominal interface depth diffusivity
                                ! in m2 s-1.
KHTH_MIN = 1.e1                  ! Minimum thickness diffusivity in m2 s-1.
KHTH_MAX = 1000-.0               ! Maximum thickness diffusivity in m2 s-1.
KHTH_SLOPE_CFF = 0.0            ! Non-dimensional coefficient in Visbeck formula.
USE_VARIABLE_MIXING = True      ! If defined, forces the variable mixing code to
                                ! be called. This allows diagnostics to be created
                                ! even if the scheme is not used. This flag is
                                ! unused if the coefficients are non-zero.

DETANGLE_INTERFACES = True     !    If true, scale up the interface height diffusivity
                                !  around layers with abrupt thickness changes.
REGULARIZE_SURFACE_LAYERS = True !  If true, reorganize top NKML+NKBL layers for
                                !  spatial smoothness.
REG_SFC_DEFICIT_TOLERANCE = 0.5
MIXEDLAYER_RESTRAT = True       !    If true, a density-gradient dependent
                                !  re-stratifying flow is imposed in the mixed
                                !  layer.
FOX_KEMPER_ML_RESTRAT_COEF = 5.0
                                !     A nondimensional coefficient that is
                                !  proportional to the ratio of the deformation
                                !  radius to the dominant lengthscale of the
                                !  submesoscale mixed layer instabilities, times
                                !  the minimum of the ratio of mesoscale eddy
                                !  kinetic energy to the large-scale geostrophic
                                !  kinetic energy or 1 plus the square of the
                                !  grid spacing over the deformation radius, as
                                !  detailed in the work of Fox-Kemper et al.

!  Specify the scheme for the Coriolis and momentum advection terms.
CORIOLIS_SCHEME = "SADOURNY75_ENERGY"
                                ! Selects the discretization of Coriolis terms.
                                ! Possible values are:
                                !   SADOURNY75_ENERGY - Sadourny's energy
                                !                       conserving scheme
                                !   ARAKAWA_HSU90     - Arakawa and Hsu's scheme
                                !   ROBUST_ENSTRO     - A pseudo-enstrophy
                                !                       conserving scheme, robust
                                !                       to vanishing thickness
KE_SCHEME = "KE_ARAKAWA"        !    Selects the discretization for the kinetic
                                !  energy in the Bernoulli function.  Possible
                                !  values are KE_ARAKAWA, KE_SIMPLE_GUDONOV,
                                !  and KE_GUDONOV.  KE_ARAKAWA is the default.
BOUND_CORIOLIS = True           !    If BOUND_CORIOLIS is defined, the Coriolis
                                !  terms at u points are bounded by the four
                                !  estimates of (f+rv)v from the four neighboring
                                !  v points, and similarly at v points. This
                                !  option would have no effect on the SADOURNY
                                !  scheme if it were possible to use centered
                                !  difference thickness fluxes.  In addition, if
                                !  SMAGORINSKY_AH is used, the biharmonic
                                !  viscosity is modified to include a term that
                                !  scales quadratically with the velocity
                                !  shears.
CORIOLIS_EN_DIS = True          !    If CORIOLIS_EN_DIS is defined, two estimates
                                !  of the thickness fluxes are used to estimate
                                !  the Coriolis term, and the one that dissipates
                                !  energy relative to the other one is used.

!  Specify the scheme for the continuity solver.
CONTINUITY_SCHEME = "PPM"       !  CONTINUTITY_SCHEME specifies the scheme used
                                !  for the continuity solver. PPM is currently
                                !  the only option, in which case a positive-
                                !  definite piecewise parabolic reconstruction
                                !  is used for the continuity solver.
CONTINUITY_CFL_LIMIT = 0.5      ! This is the CFL limit for corrections with
                                ! the PPM continuity scheme.
CONT_PPM_BETTER_ITER = True     !    If true, use the velocity change tolerance
                                !  to determine when to keep iterating with the
                                !  PPM continuity scheme.
CONT_PPM_USE_VISC_REM_MAX = True ! If true, use more appropriate limiting
                                ! bounds for corrections in viscous columns.

!  Specify the scheme for the vertical viscosity.
HARMONIC_VISC = False           !    If defined, use the harmonic mean thickness
                                !  for calculating the vertical viscosity.

!  Specify the scheme for the pressure gradient accelerations.
ANALYTIC_FV_PGF = True          !    If defined the pressure gradient forces
                                !  are calculated with a finite volume form that
                                !  analytically integrates the equations of state
                                !  in pressure to avoid any possibility of
                                !  numerical thermobaric instability.

!  Specify the scheme for the barotropic solver.
BOUND_BT_CORRECTION = True      !    If defined, the corrective pseudo mass-
                                !  fluxes into the barotropic solver are limited
                                !  to values that require less than 0.1*MAXVEL to
                                !  be accommodated.
BT_PROJECT_VELOCITY = True

INTERPOLATE_P_SURF = False      !  Interpolate surface pressure changes through the
                                !  barotropic solver.
BT_THICK_SCHEME = "FROM_BT_CONT"

DYNAMIC_SURFACE_PRESSURE = True
ICE_LENGTH_DYN_PSURF = 1.e3
CONST_DYN_PSURF = 0.9

TFREEZE_FORM = "MILLERO_78"
USE_RIGID_SEA_ICE = True
PRESSURE_DEPENDENT_FRAZIL = True


MASS_WEIGHT_IN_PRESSURE_GRADIENT = True !   [Boolean] default = False
                                ! If true, use mass weighting when interpolation T/S for
                                ! top/bottom integrals in AFV pressure gradient calculation.

!  Specify the properties of the active tracers and Eqn of state.
ENABLE_THERMODYNAMICS = True    !    Temperature and salinity are used as state
                                !  variables if ENABLE_THERMODYNAMICS is defined.
FRAZIL = True                   !    If FRAZIL is defined, water freezes if it
                                !  gets colder than the freezing point, and the
                                !  accumulated heat deficit is returned in the
                                !  surface state.
RECLAIM_FRAZIL = True           !    If defined, balance heat consumption by
                                !  frazil formation by cooling any overlying water
                                !  down to the freezing point to avoid creating
                                !  thin sea-ice for SSTs above freezing.
EQN_OF_STATE = "WRIGHT"         !    EQN_OF_STATE determines which ocean equation
                                !  of state should be used.  Currently, the valid
                                !  choices are "LINEAR", "UNESCO", and "WRIGHT".
                                !  The default is "WRIGHT", but this only matters
                                !  of USE_EOS is defined.
USE_EOS = True                  !    If USE_EOS is defined, density is calculated
                                !  from temperature and salinity with an equation
                                !  of state.  ENABLE_THERMODYNAMICS must be
                                !  defined if USE_EOS is.
BOUSSINESQ = True               !    If true, make the Boussinesq approximation.
P_REF = 2.0e7                   !    P_REF is the pressure that is used for
                                !  calculating the coordinate density, in Pa.
                                !  (1 Pa = 1e4 dbar, so 2e7 is common--ly used.)
RHO_0 = 1035.0                  !    RHO_0 is used in the Boussinesq
                                !  approximation to calculations of pressure and
                                !  pressure gradients, in units of kg m-3.
C_P = 3925.0                    !    C_P is the heat capacity of sea water in
                                !  J kg-1 K-1, approximated as a constant.
CORRECT_DENSITY = True          !    If CORRECT_DENSITY is defined, the layer
                                !  densities are restored toward their target
                                !  values by the diapycnal mixing.

!  Specify the properties of the surface forcing.
WIND_STAGGER = "B"              !  "A", "B", or "C" to indicate the
                                !  staggering of the wind stresses.

!  Specify the properties of the passive tracers.
KHTR = 0.0                      ! KHTR is the along-isopycnal tracer diffusivity, in m2 s-1.
KHTR_MIN = 0.0                  ! Minimum tracer diffusivity in m2 s-1.
KHTR_MAX = 0.0                  ! Maximum tracer diffusivity in m2 s-1.
KHTR_SLOPE_CFF = 0.25           ! Non-dimensional coefficient in Visbeck formula.
                                ! Use non-zero value (e.g. 0.1) to enable Visbeck
RESOLN_SCALED_KHTR = False      !    If defined, the tracer diffusivity is scaled
                                !  away when the first baroclinic deformation
                                !  radius is well resolved.
KHTR_PASSIVITY_COEFF = 0.0      ! Passivity coefficient that scales Rd/dx
                                ! where passivity is the ratio between the
                                ! along-isopycnal tracer mixing and thickness
                                ! mixing
CHECK_DIFFUSIVE_CFL = True      !    If true, use enough iterations to ensure
                                !  that the horizontal diffusive CFL limit is
                                !  respected.  If false, always use 1 iteration.

CHECK_BAD_SURFACE_VALS = False
BAD_VAL_SST_MIN = -3.0
BAD_VAL_SST_MAX = 55.0
BAD_VAL_SSS_MIN = 0.0
BAD_VAL_SSS_MAX = 65.0
BAD_VAL_SSH_MIN = -50.0
BAD_VAL_SSH_MAX = 50.0

DIFFUSE_ML_TO_INTERIOR = True   !    If true, enable epipycnal mixing between the
                                !  surface boundary layer and the interior.
ML_KHTR_SCALE = 0.0             !    With Diffuse_ML_interior, this is the ratio
                                !  of the truly horizontal diffusivity in the
                                !  mixed layer to the epipycnal diffusivity.
                                !  The default is 1.0.  Nondimensional.

USE_USER_TRACER_EXAMPLE = False ! If defined, the example tracer package is used.
USE_IDEAL_AGE_TRACER = True     !    If defined, the ideal age and vintage
                                !  tracer package may be used.
DO_IDEAL_VINTAGE = False        !    If defined and USE_IDEAL_AGE_TRACER is