! Generated by create_data.m
F_0 = 3.76437e-05
INPUTDIR = "INPUT/Arabian"
