! Generated by create_data.m
F_0 = 0.000127208
INPUTDIR = "INPUT/Labrador"
