! Continuous isopycnal mode + initialization
USE_REGRIDDING = True
REGRIDDING_COORDINATE_MODE = "Z*" 
INTERPOLATION_SCHEME = "PPM_IH4"
BOUNDARY_EXTRAPOLATION = True
REMAPPING_SCHEME = "PPM_IH4"
