! Terrain-following coordinates
USE_REGRIDDING = True
REGRIDDING_COORDINATE_MODE = "SIGMA" 
INTERPOLATION_SCHEME = "PPM_IH4"
BOUNDARY_EXTRAPOLATION = True
REMAPPING_SCHEME = "PPM_IH4"
