!********+*********+*********+*********+*********+*********+*********+*
!*   This file determines the adjustable run-time parameters for the  *
!* Modular Ocean Model (MOM), versions 6 and later.  Where            *
!* appropriate, MKS units are used.                                   *
!********+*********+*********+*********+*********+*********+*********+*
! >>> single_column test case <<<

!  Specify properties of the physical domain.
OMEGA = 7.2921e-5               !   The rotation rate of the earth in s-1.
ROTATION = "betaplane"          !   Rotation approximation (2omegasinlat,
                                !  betaplane or USER).
F_0 = 1.0e-4                    !   Reference Coriolis value for betaplane
                                !  option in s-1.
BETA = 0.                       !   df/dy term for betaplane option in m-1 s-1.
                                !  Set to 0. for f-plane.
RAD_EARTH = 6.378e6             !    The radius of the earth in m.
G_EARTH = 9.80                  !    G_EARTH is the Earth's gravitational
                                !  acceleration, in m s-2.
GRID_CONFIG = "cartesian"       !    Method for defining horizontal grid
                                !  = file|cartesian|spherical|mercator
                                !  file - read grid from file "GRID_FILE"
                                !  cartesian - a Cartesian grid
                                !  spherical - a spherical grid
                                !  mercator  - a mercator grid
                                !    Name of file to read horizontal grid data
TOPO_CONFIG = "flat"            !   Method for defining topography
                                !  file - read topographic information from file
                                !  (TOPO_FILE).
                                !  flat - flat bottom set to MAXIMUM_DEPTH.
                                !  bowl - bowl like basin using MAXIMUM_DEPTH and
                                !  MINIMUM_DEPTH.
                                !  spoon - similar to bowl except that southern
                                !  face of the "bowl" is open.
                                !  DOME - sill-overflow test case basin.
                                !  USER - user defined
                                !    If topography is to be set externally,
                                !  then this is the file to use.
MAXIMUM_DEPTH = 5500.0          !    The maximum depth of the ocean in m.
MINIMUM_DEPTH = 0.5             !    The minimum ocean depth, in m. Anything
                                !  shallower than this depth is assumed to be on
                                !  land, and all fluxes are masked out.
CHANNEL_CONFIG = "none"         ! A string which determines which
                                !  set of channels are restricted to specific
                                !  widths.  The default, "none", has no
                                !  partially restricted channels.

COORD_CONFIG = "file"           !   How layers are to be defined:
                                !  file - read coordinate information from file
                                !  (COORD_FILE).
                                !  ts_ref - use reference temperature
                                !  and salinity (T_REF and S_REF) to determine
                                !  surface density and GINT calculate internal
                                !  densities.
                                !  gprime - use reference density (RHO_0) for
                                !  surface density and GINT calculate internal
                                !  densities.
                                !  ts_profile - use profiles of temperature
                                !  and salinity (read from COORD_FILE) to determine
                                !  surface density and internal densities.
                                !  USER - user defined routine
COORD_FILE = "ICs.nc"
                                !    If the vertical coordinate is defined by a
                                !  file, use this file.
GFS = 9.80                      !    The reduced gravity at the free
                                !  surface, in m s-2.

THICKNESS_CONFIG = "file"       !    Method for defining initial layer thicknesses
                                !  file - read thickness information from file
                                !  (THICKNESS_FILE).
                                !  uniform - thickness is distributed uniformly
                                !  and equally between layers.
                                !  search - thickness determined by search
                                !  through initial temperature and salinity space
                                !  of a fixed coordinate data set (not yet
                                !  implemented)
                                !  USER - user defined
THICKNESS_FILE = "ICs.nc"
                                !    If the Method for defining initial layer
                                !  thicknesses is "file", then this is the file
                                !  to use.
ADJUST_THICKNESS = True         !    All mass below the bottom removed if the
                                !  topography is shallower than the input file
                                !  would indicate.

VELOCITY_CONFIG = "zero"        !    Method for defining initial layer velocities
                                !  file - read velocity information from file.
                                !  zero - zero velocities everywhere.
                                !  USER - user defined.

!  Specify the numerical domain.
NIGLOBAL = 2                    !    NIGLOBAL and NJGLOBAL are the number of thickness
NJGLOBAL = 2                    !  grid points in the zonal and meridional
                                !  directions of the physical domain.
NK = 48                         !    The number of layers.
NIHALO = 2                      !    NIHALO and NJHALO are the number of halo
NJHALO = 2                      !  points on each side in the x- and y-directions.
                                !  If static memory allocation is used, these
                                !  must match the values of NIHALO_ and NJHALO_
                                !  in MOM_memory.h.

!  The following parameters only apply if the grid is internally generated.
LENLAT = 1.0                    !    The length of the domain in units defined
LENLON = 1.0                    !  defined by AXIS_UNITS; by default the units
                                !  are degrees of latitude and longitude.
SOUTHLAT = 30.0                 !  The domain's southern latitude.
WESTLON = 0.0                   !  The domain's western longitude.
AXIS_UNITS = "degrees"          !    AXIS_UNITS should be defined as "k" for km,
                                !  "m" for m, or undefined for degrees of
                                !  latitude and longitude.  Except on a Cartesian
                                !  grid, only degrees are currently implemented.
REENTRANT_X = True              !    If defined, the domain is zonally reentrant.
REENTRANT_Y = True              !    If defined, the domain is meridionally
                                !  reentrant.
TRIPOLAR_N = False              !    Use tripolar connectivity at the northern
                                !  edge of the domain.  With TRIPOLAR_N, NIGLOBAL
                                !  must be even.

DEBUG = False                   !    If true, write out verbose debugging data.
SEND_LOG_TO_STDOUT = False      !    If true write out log information to stdout.

!  Specify the time integration scheme.
SPLIT = False                   !    Use the split time stepping if defined.
DT_FORCING = 7200.0             !    The time step for changing forcing or
                                !  writing certain diagnostics, in s.
DT_THERM = 7200.0               !    The thermodynamic time step, in s.  DT_THERM
                                !  should be an integer multiple of DT and less
                                !  than or equal to DT_FORCING.
DT = 3600.0                     !    The (baroclinic) dynamics time step, in s.
                                !  DT should be an integer fraction of DT_FORCING.
BE = 0.6                        !    BE determines whether the neutral baroclinic
                                !  time stepping scheme (0.5) or a backward Euler
                                !  scheme (1) is used.  BE may be from 0.5 to 1,
                                !  but instability may occur near 0.5.
ETA_TOLERANCE = 1e-6            !    The tolerance, in m, for the differences
                                !  between the barotropic and baroclinic
                                !  estimates of the sea surface height due to
                                !  the fluxes through each face.  The total
                                !  tolerance for SSH is 4 times this value.  The
                                !  default is 0.5*NK*EPSILON, and this should not
                                !  be set less than about 10^-15*MAXIMUM_DEPTH.
ETA_TOLERANCE_AUX = 1e-3        !    The equivalent to ETA_TOLERANCE for the
                                !  calculation of auxiliary velocities, in m.

!  Specify properties of the I/O and length of the integration.
TIMEUNIT = 86400.0              !    The time unit in seconds for the following
                                !  fields.
DAYMAX = 30.0                   !    The final day of the simulation.
ENERGYSAVEDAYS = 1.0            !    The number of days between saves of the
                                !  energies of the run.
ENERGYFILE = "timestats"        !    The file to use to save the energies.
RESTARTFILE = "MOM.res"         !    The name of the restart file.
RESTINT = 3650.0                !    The number of days between saves of the
                                !  restart file.  Use a value that is larger than
                                !  DAYMAX not to save incremental restart files
                                !  within a run.  Use 0 not to save restart files
                                !  at all.
PARALLEL_RESTARTFILES = False   !    If defined, each processor writes its own
                                !  restart file, otherwise a single restart file
                                !  is generated.
RESTART_CONTROL = 0             !    RESTART_CONTROL determines which restart
                                !  files are written - Add 2 (bit 1) for a time-
                                !  stamped restart file, and odd (bit 0) for a
                                !  non-time-stamped file.  A restart will be
                                !  saved at the end of the run segment for any
                                !  non-negative value.
SAVE_INITIAL_CONDS = True       !    If defined, the inital conditions are
                                !  written to IC_OUTPUT_FILE at the start of a
                                !  new run.
IC_OUTPUT_FILE = "GOLD_IC"      !  The name-root of a file into which the
                                !  initial conditions are written for a new run.
ALWAYS_WRITE_GEOM = False       !    If ALWAYS_WRITE_GEOM is defined, the
                                !  ocean_geometry file is written anew with each
                                !  run segment.  Otherwise it is only written for
                                !  a new run.  The default is defined.
Z_OUTPUT_GRID_FILE = "../zgrid.nc"
                                !    The file that specifies the vertical grid
                                !  for depth-space diagnostics.
MIN_Z_DIAG_INTERVAL = 2.16e4    ! The minimum amount of time in seconds between
                                !  calculations of depth-space diagnostics.
                                !  Making this larger than DT_THERM reduces the
                                !  performance penalty of regridding to depth
                                !  online.

MAXCPU = 28800.0                !   The maximum amount of cpu time per processor
                                !  for which MOM should run before saving a
                                !  restart file and quitting with a return value
                                !  that indicates that a further execution is
                                !  required to complete the simulation.  If
                                !  automatic restarts are not desired, use a
                                !  negative value for MAXCPU.  MAXCPU has units
                                !  of wall-clock seconds. (i.e. CPU time limit is
                                !  larger by a factor of the number of processors
                                !  used.
INPUTDIR = "INPUT"              !    INPUTDIR is a directory in which NetCDF
                                !  input files might be found.

!  Specify the horizontal (along-isopycnal) viscosity.
LAPLACIAN = True                !    LAPLACIAN is defined to use a Laplacian
                                !  horizontal viscosity.
BIHARMONIC = True               !    BIHARMONIC is defined to use a biharmonic
                                !  horizontal viscosity.  BIHARMONIC may be used
                                !  with LAPLACIAN, and it is automatically
                                !  defined if LAPLACIAN is undefined.
BOUND_KH = True                 !    If BOUND_KH is defined, the Laplacian
                                !  coefficient is locally limited to guarantee
                                !  stability.
BOUND_AH = True                 !    If BOUND_AH is defined, the biharmonic
                                !  coefficient is locally limited to guarantee
                                !  stability.
BETTER_BOUND_KH = True          !    If BETTER_BOUND_KH is defined, use more
                                !  careful bounds in limiting KH for stability.
BETTER_BOUND_AH = True          !    If BETTER_BOUND_AH is defined, use more
                                !  careful bounds in limiting AH for stability.
RESOLN_SCALED_KH = False        !    If true, the lateral viscosity is scaled
                                !  away when the first baroclinic deformation
                                !  radius is well resolved.
KH = 0.0                        !    The Laplacian horizontal viscosity, in
                                !  m2 s-1.  KH is used if LAPLACIAN is defined.
AH = 0.0                        !    The biharmonic horizontal viscosity, in
                                !  m4 s-1.  AH is used if BIHARMONIC is defined.
KH_VEL_SCALE = 0.01             !    The velocity scale which is multiplied by
                                !  the grid spacing to calculate the Laplacian
                                !  viscosity ,if LAPLACIAN is defined, in m s-1.
                                !  The final viscosity is the largest of this
                                !  scaled viscosity, the Smagorinsky viscosity
                                !  and KH.
AH_VEL_SCALE = 0.05             !    The velocity scale which is multiplied by
                                !  the cube of the grid spacing to calculate the
                                !  biharmonic viscosity if BIHARMONIC is defined,
                                !  in units of m s-1. The final viscosity is
                                !  the largest of this scaled viscosity, the
                                !  Smagorinsky viscosity and AH.
SMAGORINSKY_KH = False          !    If defined, use Smagorinsky's nonlinear eddy
                                !  viscosity.  KH is the background.
SMAG_LAP_CONST = 0.15           !    The nondimensional Laplacian Smagorinsky
                                !  constant.  Often 0.15.
SMAGORINSKY_AH = True           !    If defined, use a biharmonic form of
                                !  Smagorinsky's nonlinear eddy viscosity.
SMAG_BI_CONST = 0.06            !    The nondimensional biharmonic Smagorinsky
                                !  constant.  Often 0.015.
NOSLIP = False                  !    This should True for no slip
                                !  boundary conditions False for free
                                !  slip boundary conditions (the default). The
                                !  implementation of the free slip boundary
                                !  conditions on a C-grid is much cleaner than
                                !  the no slip boundary conditions.  The use of
                                !  free slip b.c.s is strongly encouraged.  The
                                !  no slip b.c.s are not implemented with the
                                !  biharmonic viscosity.

!  Specify the horizontal interface depth (akin to Gent-McWilliams) diffusion.
THICKNESSDIFFUSE = False        !    If THICKNESSDIFFUSE is defined, interfaces
                                !  are diffused with a coefficient of KHTH.
THICKNESSDIFFUSE_FIRST = False  !    If THICKNESSDIFFUSE_FIRST is defined, do
                                !  thickness diffusion before dynamics.
RESOLN_SCALED_KHTH = False      !    If defined, the interface depth diffusivity
                                !  is scaled away when the first baroclinic
                                !  deformation radius is well resolved.
KHTH_SLOPE_MAX = 1.0e-2         !  A slope beyond which the calculated isopycnal
                                !  slope is not reliable and is scaled away.

MIXEDLAYER_RESTRAT = False      !    If true, a density-gradient dependent
                                !  re-stratifying flow is imposed in the mixed
                                !  layer.

!  Specify the scheme for the Coriolis and momentum advection terms.
CORIOLIS_SCHEME = "SADOURNY75_ENERGY"
                                ! Selects the discretization of Coriolis terms.
                                ! Possible values are:
                                !   SADOURNY75_ENERGY - Sadourny's energy
                                !                       conserving scheme
                                !   ARAKAWA_HSU90     - Arakawa and Hsu's scheme
                                !   ROBUST_ENSTRO     - A pseudo-enstrophy
                                !                       conserving scheme, robust
                                !                       to vanishing thickness
KE_SCHEME = "KE_ARAKAWA"        !    Selects the discretization for the kinetic
                                !  energy in the Bernoulli function.  Possible
                                !  values are KE_ARAKAWA, KE_SIMPLE_GUDONOV,
                                !  and KE_GUDONOV.  KE_ARAKAWA is the default.
BOUND_CORIOLIS = True           !    If BOUND_CORIOLIS is defined, the Coriolis
                                !  terms at u points are bounded by the four
                                !  estimates of (f+rv)v from the four neighboring
                                !  v points, and similarly at v points. This
                                !  option would have no effect on the SADOURNY
                                !  scheme if it were possible to use centered
                                !  difference thickness fluxes.  In addition, if
                                !  SMAGORINSKY_AH is used, the biharmonic
                                !  viscosity is modified to include a term that
                                !  scales quadratically with the velocity
                                !  shears.
CORIOLIS_EN_DIS = True          !    If CORIOLIS_EN_DIS is defined, two estimates
                                !  of the thickness fluxes are used to estimate
                                !  the Coriolis term, and the one that dissipates
                                !  energy relative to the other one is used.

!  Specify the scheme for the continuity solver.
CONTINUITY_SCHEME = "PPM"       !  CONTINUTITY_SCHEME specifies the scheme used
                                !  for the continuity solver. PPM is currently
                                !  the only option, in which case a positive-
                                !  definite piecewise parabolic reconstruction
                                !  is used for the continuity solver.
UPWIND_1ST_CONTINUITY = True    !    If defined, use a simple first order upwind
                                !  continuity solver using the PPM code.
CONTINUITY_CFL_LIMIT = 0.5      ! This is the CFL limit for corrections with
                                ! the PPM continuity scheme.
CONT_PPM_BETTER_ITER = True     !    If true, use the velocity change tolerance
                                !  to determine when to keep iterating with the
                                !  PPM continuity scheme.
CONT_PPM_USE_VISC_REM_MAX = True ! If true, use more appropriate limiting
                                ! bounds for corrections in viscous columns.

!  Specify the scheme for the vertical viscosity.
HARMONIC_VISC = True            !    If defined, use the harmonic mean thickness
                                !  for calculating the vertical viscosity.

!  Specify the scheme for the pressure gradient accelerations.
ANALYTIC_FV_PGF = True          !    If defined the pressure gradient forces
                                !  are calculated with a finite volume form that
                                !  analytically integrates the equations of state
                                !  in pressure to avoid any possibility of
                                !  numerical thermobaric instability.


!  Specify the properties of the active tracers and Eqn of state.
ENABLE_THERMODYNAMICS = True    !    Temperature and salinity are used as state
                                !  variables if ENABLE_THERMODYNAMICS is defined.
TS_CONFIG = "file"              !   Method for defining temperature (file or USER)
TS_FILE = "ICs.nc"
                                !   If temperature is defined by a file, this is
                                !  the file to use.
FRAZIL = True                   !    If FRAZIL is defined, water freezes if it
                                !  gets colder than the freezing point, and the
                                !  accumulated heat deficit is returned in the
                                !  surface state.
RECLAIM_FRAZIL = False          !    If defined, balance heat consumption by
                                !  frazil formation by cooling any overlying water
                                !  down to the freezing point to avoid creating
                                !  thin sea-ice for SSTs above freezing.
EQN_OF_STATE = "WRIGHT"         !    EQN_OF_STATE determines which ocean equation
                                !  of state should be used.  Currently, the valid
                                !  choices are "LINEAR", "UNESCO", and "WRIGHT".
                                !  The default is "WRIGHT", but this only matters
                                !  of USE_EOS is defined.
USE_EOS = True                  !    If USE_EOS is defined, density is calculated
                                !  from temperature and salinity with an equation
                                !  of state.  ENABLE_THERMODYNAMICS must be
                                !  defined if USE_EOS is.
BOUSSINESQ = True               !    If true, make the Boussinesq approximation.
P_REF = 2.0e7                   !    P_REF is the pressure that is used for
                                !  calculating the coordinate density, in Pa.
                                !  (1 Pa = 1e4 dbar, so 2e7 is commonly used.)
RHO_0 = 1035.0                  !    RHO_0 is used in the Boussinesq
                                !  approximation to calculations of pressure and
                                !  pressure gradients, in units of kg m-3.
C_P = 3925.0                    !    C_P is the heat capacity of sea water in
                                !  J kg-1 K-1, approximated as a constant.
CORRECT_DENSITY = True          !    If CORRECT_DENSITY is defined, the layer
                                !  densities are restored toward their target
                                !  values by the diapycnal mixing.

!  Specify the properties of the passive tracers.
KHTR = 600.0                    !    KHTR is the along-isopycnal tracer
                                !  diffusivity, in m2 s-1. KHTR is not needed for
                                !  numerical stability.
RESOLN_SCALED_KHTR = False      !    If defined, the tracer diffusivity is scaled
                                !  away when the first baroclinic deformation
                                !  radius is well resolved.
CHECK_DIFFUSIVE_CFL = False     !    If true, use enough iterations to ensure
                                !  that the horizontal diffusive CFL limit is
                                !  respected.  If false, always use 1 iteration.
DIFFUSE_ML_TO_INTERIOR = False  !    If true, enable epipycnal mixing between the
                                !  surface boundary layer and the interior.
ML_KHTR_SCALE = 1.0             !    With Diffuse_ML_interior, this is the ratio
                                !  of the truly horizontal diffusivity in the
                                !  mixed layer to the epipycnal diffusivity.
                                !  The default is 1.0.  Nondimensional.

USE_USER_TRACER_EXAMPLE = False ! If defined, the example tracer package is used.
USE_IDEAL_AGE_TRACER = False    !  If defined, the ideal age and vintage
                                !  tracer package is used.

!  Specify the properties of the diapycnal viscosity and diffusion.
ADIABATIC = False               !    There are no diapycnal mass fluxes if
                                !  ADIABATIC is defined. This assumes that
                                !  KD = KDML = 0.0 and that there is no buoyancy
                                !  forcing, but makes the model faster by
                                ! eliminating subroutine calls.

BULKMIXEDLAYER = True           !    If defined, use a Kraus-Turner-like bulk
                                !  mixed layer with transitional buffer layers.
                                !  Layers 1 through NKML+NKBL have variable
                                !  densities. There must be at least NKML+NKBL+1
                                !  layers if BULKMIXEDLAYER is defined.
! The following parameters only apply when BULKMIXEDLAYER is defined.
ML_USE_OMEGA = True
CORRECT_ABSORPTION_DEPTH = True
NKML = 2                        !    NKML is the number of sublayers within the
                                !  mixed layer.
NKBL = 2                        !    NKBL is the number of layers used as
                                !  variable density buffer layers.
MSTAR = 0.3                     !    MSTAR is a non-dimensional constant of
                                !  proportionality between the cube of the
                                !  surface friction velocity and the turbulent
                                !  kinetic energy input at the surface.
NSTAR = 0.15                    !    NSTAR is the portion of the buoyant
                                !  potential energy imparted by surface fluxes
                                !  that is available to drive entrainment at the
                                !  base of mixed layer when that energy is
                                !  positive.
NSTAR2 = 0.15                   !    NSTAR2 is the portion of any potential
                                !  energy released by convective adjustment that
                                !  is available to drive entrainment at the
                                !  base of the mixed layer.  By default,
                                !  NSTAR2 = NSTAR.
READ_GUST_2D = True             !    Signals to read gustiness from a file (Pa)
GUST_2D_FILE = "forcing_monthly.nc" ! Gustiness data file
GUST_CONST = 0.02               !    Gustinesss to use if not read from file or
                                !  a background that is added to the data (Pa)
PEN_SW_NBANDS = 3               !    The number of bands of penetrating shortwave
                                !  radiation.
ABSORB_ALL_SW = True            !    If defined, all shortwave radiation is
                                !  absorbed by the ocean, instead of passing
                                !  through to the bottom mud.
TKE_DECAY = 10.0                !    TKE_DECAY relates the vertical rate of decay
                                !  of the TKE available for mechanical entrain-
                                !  ment to the natural Ekman depth.  Nondim.
CONV_DECAY = 0.5                !    CONV_DECAY relates the vertical rate of
                                !  decay of the convectively released TKE
                                !  available for penetrating entrainment to the
                                !  natural Ekman length.  Nondimensional.
BULK_RI_ML = 0.05               !    BULK_RI_ML is the efficiency with which mean
                                !  kinetic energy released by mechanically forced
                                !  entrainment of the mixed layer is converted to
                                !  turbulent kinetic energy.  Nondimensional.
BULK_RI_CONVECTIVE = 0.05       !    BULK_RI_CONVECTIVE is the efficiency with
                                !  which convectively released mean kinetic
                                !  energy is converted to turbulent kinetic
                                !  energy.  Nondimensional.
RESOLVE_EKMAN = False           !    If true, the nkml>1 layers in the mixed