TRIPOLAR_N = True               !   [Boolean] default = False
                                ! Use tripolar connectivity at the northern edge of the
                                ! domain.  With TRIPOLAR_N, NIGLOBAL must be even.
!SYMMETRIC_MEMORY_ = False      !   [Boolean]
                                ! If defined, the velocity point data domain includes
                                ! every face of the thickness points. In other words,
                                ! some arrays are larger than others, depending on where
                                ! they are on the staggered grid.  Also, the starting
                                ! index of the velocity-point arrays is usually 0, not 1.
                                ! This can only be set at compile time.
!STATIC_MEMORY_ = False         !   [Boolean]
                                ! If STATIC_MEMORY_ is defined, the principle variables
                                ! will have sizes that are statically determined at
                                ! compile time.  Otherwise the sizes are not determined
                                ! until run time. The STATIC option is substantially
                                ! faster, but does not allow the PE count to be changed
                                ! at run time.  This can only be set at compile time.
NIHALO = 4                      ! default = 2
                                ! The number of halo points on each side in the
                                ! x-direction.  With STATIC_MEMORY_ this is set as NIHALO_
                                ! in MOM_memory.h at compile time; without STATIC_MEMORY_
                                ! the default is NIHALO_ in MOM_memory.h (if defined) or 2.
NJHALO = 4                      ! default = 2
                                ! The number of halo points on each side in the
                                ! y-direction.  With STATIC_MEMORY_ this is set as NJHALO_
                                ! in MOM_memory.h at compile time; without STATIC_MEMORY_
                                ! the default is NJHALO_ in MOM_memory.h (if defined) or 2.
NIGLOBAL = 1440                 !
                                ! The total number of thickness grid points in the
                                ! x-direction in the physical domain. With STATIC_MEMORY_
                                ! this is set in MOM_memory.h at compile time.
NJGLOBAL = 1080                 !
                                ! The total number of thickness grid points in the
                                ! y-direction in the physical domain. With STATIC_MEMORY_
                                ! this is set in MOM_memory.h at compile time.
MASKTABLE = "mask_table.96.32x18" ! default = "MOM_mask_table"
                                ! A text file to specify n_mask, layout and mask_list.
                                ! This feature masks out processors that contain only land points.
                                ! The first line of mask_table is the number of regions to be masked out.
                                ! The second line is the layout of the model and must be
                                ! consistent with the actual model layout.
                                ! The following (n_mask) lines give the logical positions
                                ! of the processors that are masked out. The mask_table
                                ! can be created by tools like check_mask. The
                                ! following example of mask_table masks out 2 processors,
                                ! (1,2) and (3,6), out of the 24 in a 4x6 layout:
                                !  2
                                !  4,6
                                !  1,2
                                !  3,6
LAYOUT = 32, 18                 ! default = 0
                                ! The processor layout to be used, or 0, 0 to automatically
                                ! set the layout based on the number of processors.
!NIPROC = 32                    !
                                ! The number of processors in the x-direction. With
                                ! STATIC_MEMORY_ this is set in MOM_memory.h at compile time.
!NJPROC = 18                    !
                                ! The number of processors in the x-direction. With
                                ! STATIC_MEMORY_ this is set in MOM_memory.h at compile time.
!LAYOUT = 32, 18                !
                                ! The processor layout that was acutally used.
IO_LAYOUT = 2, 2                ! default = 0
                                ! The processor layout to be used, or 0,0 to automatically
                                ! set the io_layout to be the same as the layout.

! === module MOM_grid ===
! Parameters providing information about the vertical grid.
NK = 75                         !   [nondim]
                                ! The number of model layers.

! === module MOM_verticalGrid ===
! Parameters providing information about the vertical grid.

! === module MOM ===
DIABATIC_FIRST = True           !   [Boolean] default = False
                                ! If true, apply diabatic and thermodynamic processes,
                                ! including buoyancy forcing and mass gain or loss,
                                ! before stepping the dynamics forward.
BULKMIXEDLAYER = False          !   [Boolean] default = True
                                ! If true, use a Kraus-Turner-like bulk mixed layer
                                ! with transitional buffer layers.  Layers 1 through
                                ! NKML+NKBL have variable densities. There must be at
                                ! least NKML+NKBL+1 layers if BULKMIXEDLAYER is true.
                                ! The default is the same setting as ENABLE_THERMODYNAMICS.
USE_REGRIDDING = True           !   [Boolean] default = False
                                ! If True, use the ALE algorithm (regridding/remapping).
                                ! If False, use the layered isopycnal algorithm.
DT = 1200.0                     !   [s]
                                ! The (baroclinic) dynamics time step.  The time-step that
                                ! is actually used will be an integer fraction of the
                                ! forcing time-step (DT_FORCING in ocean-only mode or the
                                ! coupling timestep in coupled mode.)
DT_THERM = 3600.0               !   [s] default = 1200.0
                                ! The thermodynamic and tracer advection time step.
                                ! Ideally DT_THERM should be an integer multiple of DT
                                ! and less than the forcing or coupling time-step.
                                ! By default DT_THERM is set to DT.
MIN_Z_DIAG_INTERVAL = 2.16E+04  !   [s] default = 0.0
                                ! The minimum amount of time in seconds between
                                ! calculations of depth-space diagnostics. Making this
                                ! larger than DT_THERM reduces the  performance penalty
                                ! of regridding to depth online.
DTBT_RESET_PERIOD = -1.0        !   [s] default = 3600.0
                                ! The period between recalculations of DTBT (if DTBT <= 0).
                                ! If DTBT_RESET_PERIOD is negative, DTBT is set based
                                ! only on information available at initialization.  If
                                ! dynamic, DTBT will be set at least every forcing time
                                ! step, and if 0, every dynamics time step.  The default is
                                ! set by DT_THERM.  This is only used if SPLIT is true.
FRAZIL = True                   !   [Boolean] default = False
                                ! If true, water freezes if it gets too cold, and the
                                ! the accumulated heat deficit is returned in the
                                ! surface state.  FRAZIL is only used if
                                ! ENABLE_THERMODYNAMICS is true.
BOUND_SALINITY = True           !   [Boolean] default = False
                                ! If true, limit salinity to being positive. (The sea-ice
                                ! model may ask for more salt than is available and
                                ! drive the salinity negative otherwise.)
C_P = 3925.0                    !   [J kg-1 K-1] default = 3991.86795711963
                                ! The heat capacity of sea water, approximated as a
                                ! constant. This is only used if ENABLE_THERMODYNAMICS is
                                ! true. The default value is from the TEOS-10 definition
                                ! of conservative temperature.
CHECK_BAD_SURFACE_VALS = True   !   [Boolean] default = False
                                ! If true, check the surface state for ridiculous values.
BAD_VAL_SSH_MAX = 50.0          !   [m] default = 20.0
                                ! The value of SSH above which a bad value message is
                                ! triggered, if CHECK_BAD_SURFACE_VALS is true.
BAD_VAL_SSS_MAX = 65.0          !   [PSU] default = 45.0
                                ! The value of SSS above which a bad value message is
                                ! triggered, if CHECK_BAD_SURFACE_VALS is true.
BAD_VAL_SST_MAX = 55.0          !   [deg C] default = 45.0
                                ! The value of SST above which a bad value message is
                                ! triggered, if CHECK_BAD_SURFACE_VALS is true.
BAD_VAL_SST_MIN = -3.0          !   [deg C] default = -2.1
                                ! The value of SST below which a bad value message is
                                ! triggered, if CHECK_BAD_SURFACE_VALS is true.

! === module MOM_tracer_registry ===
DTFREEZE_DP = -7.75E-08         !   [deg C Pa-1] default = 0.0
                                ! When TFREEZE_FORM=LINEAR,
                                ! this is the derivative of the freezing potential
                                ! temperature with pressure.
PARALLEL_RESTARTFILES = True    !   [Boolean] default = False
                                ! If true, each processor writes its own restart file,
                                ! otherwise a single restart file is generated

! === module MOM_tracer_flow_control ===
USE_IDEAL_AGE_TRACER = True     !   [Boolean] default = False
                                ! If true, use the ideal_age_example tracer package.

! === module ideal_age_example ===
INPUTDIR = "INPUT"              ! default = "."
                                ! The directory in which input files are found.
COORD_CONFIG = "file"           !
                                ! This specifies how layers are to be defined:
                                !     file - read coordinate information from the file
                                !       specified by (COORD_FILE).
                                !     linear - linear based on interfaces not layesrs.
                                !     ts_ref - use reference temperature and salinity
                                !     ts_range - use range of temperature and salinity
                                !       (T_REF and S_REF) to determine surface density
                                !       and GINT calculate internal densities.
                                !     gprime - use reference density (RHO_0) for surface
                                !       density and GINT calculate internal densities.
                                !     ts_profile - use temperature and salinity profiles
                                !       (read from COORD_FILE) to set layer densities.
                                !     USER - call a user modified routine.
COORD_FILE = "layer_coord.nc"   !
                                ! The file from which the coordinate densities are read.

! === module MOM_grid_init ===
GRID_CONFIG = "mosaic"          !
                                ! A character string that determines the method for
                                ! defining the horizontal grid.  Current options are:
                                !     mosaic - read the grid from a mosaic (supergrid)
                                !              file set by GRID_FILE.
                                !     cartesian - use a (flat) Cartesian grid.
                                !     spherical - use a simple spherical grid.
                                !     mercator - use a Mercator spherical grid.
GRID_FILE = "ocean_hgrid.nc"    !
                                ! Name of the file from which to read horizontal grid data.
TOPO_CONFIG = "file"            !
                                ! This specifies how bathymetry is specified:
                                !     file - read bathymetric information from the file
                                !       specified by (TOPO_FILE).
                                !     flat - flat bottom set to MAXIMUM_DEPTH.
                                !     bowl - an analytically specified bowl-shaped basin
                                !       ranging between MAXIMUM_DEPTH and MINIMUM_DEPTH.
                                !     spoon - a similar shape to 'bowl', but with an vertical
                                !       wall at the southern face.
                                !     halfpipe - a zonally uniform channel with a half-sine
                                !       profile in the meridional direction.
                                !     benchmark - use the benchmark test case topography.
                                !     DOME - use a slope and channel configuration for the
                                !       DOME sill-overflow test case.
                                !     DOME2D - use a shelf and slope configuration for the
                                !       DOME2D gravity current/overflow test case.
                                !     seamount - Gaussian bump for spontaneous motion test case.
                                !     USER - call a user modified routine.
TOPO_FILE = "ocean_topog.nc"    ! default = "topog.nc"
                                ! The file from which the bathymetry is read.
MAXIMUM_DEPTH = 6500.0          !   [m]
                                ! The maximum depth of the ocean.
MINIMUM_DEPTH = 9.5             !   [m] default = 0.0
                                ! If MASKING_DEPTH is unspecified, then anything shallower than
                                ! MINIMUM_DEPTH is assumed to be land and all fluxes are masked out.
                                ! If MASKING_DEPTH is specified, then all depths shallower than
                                ! MINIMUM_DEPTH but depper than MASKING_DEPTH are rounded to MINIMUM_DEPTH.
MASKING_DEPTH = 0.0             !   [m] default = -9999.0
                                ! The depth below which to mask points as land points, for which all
                                ! fluxes are zeroed out. MASKING_DEPTH is ignored if negative.
CHANNEL_CONFIG = "list"         ! default = "none"
                                ! A parameter that determines which set of channels are
                                ! restricted to specific  widths.  Options are:
                                !     none - All channels have the grid width.
                                !     global_1deg - Sets 16 specific channels appropriate
                                !       for a 1-degree model, as used in CM2G.
                                !     list - Read the channel locations and widths from a
                                !       text file, like MOM_channel_list in the MOM_SIS
                                !       test case.
                                !     file - Read open face widths everywhere from a
                                !       NetCDF file on the model grid.
CHANNEL_LIST_FILE = "MOM_channels_global_025" ! default = "MOM_channel_list"
                                ! The file from which the list of narrowed channels is read.
WRITE_GEOM = 0                  ! default = 1
                                ! If =0, never write the geometry and vertical grid files.
                                ! If =1, write the geometry and vertical grid files only for
                                ! a new simulation. If =2, always write the geometry and
                                ! vertical grid files. Other values are invalid.
INIT_LAYERS_FROM_Z_FILE = True  !   [Boolean] default = False
                                ! If true, intialize the layer thicknesses, temperatures,
                                ! and salnities from a Z-space file on a latitude-
                                ! longitude grid.
TEMP_SALT_Z_INIT_FILE = "WOA05_pottemp_salt.nc" ! default = "temp_salt_z.nc"
                                ! The name of the z-space input file used to initialize
                                ! the layer thicknesses, temperatures and salinities.
Z_INIT_FILE_PTEMP_VAR = "PTEMP" ! default = "ptemp"
                                ! The name of the potential temperature variable in
                                ! TEMP_SALT_Z_INIT_FILE.
Z_INIT_FILE_SALT_VAR = "SALT"   ! default = "salt"
                                ! The name of the salinity variable in
                                ! TEMP_SALT_Z_INIT_FILE.
Z_INIT_ALE_REMAPPING = True     !   [Boolean] default = False
                                ! If True, then remap straight to model coordinate from file.
REGRIDDING_COORDINATE_MODE = "Z*" ! default = "LAYER"
                                ! Coordinate mode for vertical regridding.
                                ! Choose among the following possibilities:
                                !  LAYER - Isopycnal or stacked shallow water layers
                                !  Z*    - stetched geopotential z*
                                !  SIGMA - terrain following coordinates
                                !  RHO   - continuous isopycnal
ALE_COORDINATE_CONFIG = "FILE:INPUT/vgrid_75_2m.nc,dz" ! default = "UNIFORM"
                                ! Determines how to specify the coordinate
                                ! resolution. Valid options are:
                                !  PARAM       - use the vector-parameter ALE_RESOLUTION
                                !  UNIFORM     - uniformly distributed
                                !  FILE:string - read from a file. The string specifies
                                !                the filename and variable name, separated
                                !                by a comma or space, e.g. FILE:lev.nc,Z
!ALE_RESOLUTION = 4*2.0, 2*2.01, 2.02, 2.03, 2.05, 2.08, 2.11, 2.15, 2.2, 2.27, 2.34, 2.44, 2.55, 2.69, 2.85, 3.04, 3.27, 3.54, 3.85, 4.22, 4.66, 5.18, 5.79, 6.52, 7.37, 8.37, 9.55, 10.94, 12.57, 14.48, 16.72, 19.33, 22.36, 25.87, 29.91, 34.53, 39.79, 45.72, 52.37, 59.76, 67.89, 76.74, 86.29, 96.47, 107.2, 118.35, 129.81, 141.42, 153.01, 164.41, 175.47, 186.01, 195.9, 205.01, 213.27, 220.6, 226.99, 232.43, 236.96, 240.63, 243.52, 245.72, 247.33, 248.45, 249.18, 249.62, 249.86, 249.96, 249.99, 2*250.0 !   [m]
                                ! The distribution of vertical resolution for the target
                                ! grid used for Eulerian-like coordinates. For example,
                                ! in z-coordinate mode, the parameter is a list of level
                                ! thicknesses (in m). In sigma-coordinate mode, the list
                                ! is of non-dimensional fractions of the water column.
REMAPPING_SCHEME = "PPM_H4"     ! default = "PLM"
                                ! This sets the reconstruction scheme used
                                ! for vertical remapping for all variables.
                                ! It can be one of the following schemes:
                                ! PCM         (1st-order accurate)
                                ! PLM         (2nd-order accurate)
                                ! PPM_H4      (3rd-order accurate)
                                ! PPM_IH4     (3rd-order accurate)
                                ! PQM_IH4IH3  (4th-order accurate)
                                ! PQM_IH6IH5  (5th-order accurate)

! === module MOM_MEKE ===

! === module MOM_lateral_mixing_coeffs ===
USE_VARIABLE_MIXING = True      !   [Boolean] default = False
                                ! If true, the variable mixing code will be called.  This
                                ! allows diagnostics to be created even if the scheme is
                                ! not used.  If KHTR_SLOPE_CFF>0 or  KhTh_Slope_Cff>0,
                                ! this is set to true regardless of what is in the
                                ! parameter file.
RESOLN_SCALED_KH = True         !   [Boolean] default = False
                                ! If true, the Laplacian lateral viscosity is scaled away
                                ! when the first baroclinic deformation radius is well
                                ! resolved.
RESOLN_SCALED_KHTH = True       !   [Boolean] default = False
                                ! If true, the interface depth diffusivity is scaled away
                                ! when the first baroclinic deformation radius is well
                                ! resolved.
KHTR_SLOPE_CFF = 0.25           !   [nondim] default = 0.0
                                ! The nondimensional coefficient in the Visbeck formula
                                ! for the epipycnal tracer diffusivity

! === module MOM_wave_speed ===
ETA_TOLERANCE = 1.0E-06         !   [m] default = 3.75E-09
                                ! The tolerance for the differences between the
                                ! barotropic and baroclinic estimates of the sea surface
                                ! height due to the fluxes through each face.  The total
                                ! tolerance for SSH is 4 times this value.  The default
                                ! is 0.5*NK*ANGSTROM, and this should not be set less x
                                ! than about 10^-15*MAXIMUM_DEPTH.
ETA_TOLERANCE_AUX = 0.001       !   [m] default = 1.0E-06
                                ! The tolerance for free-surface height discrepancies
                                ! between the barotropic solution and the sum of the
                                ! layer thicknesses when calculating the auxiliary
                                ! corrected velocities. By default, this is the same as
                                ! ETA_TOLERANCE, but can be made larger for efficiency.
CORIOLIS_SCHEME = "SADOURNY75_ENSTRO" ! default = "SADOURNY75_ENERGY"
                                ! CORIOLIS_SCHEME selects the discretization for the
                                ! Coriolis terms. Valid values are:
                                !    SADOURNY75_ENERGY - Sadourny, 1975; energy cons.
                                !    ARAKAWA_HSU90     - Arakawa & Hsu, 1990
                                !    SADOURNY75_ENSTRO - Sadourny, 1975; enstrophy cons.
                                !    ARAKAWA_LAMB81    - Arakawa & Lamb, 1981; En. + Enst.
                                !    ARAKAWA_LAMB_BLEND - A blend of Arakawa & Lamb with
                                !                         Arakawa & Hsu and Sadourny energy
BOUND_CORIOLIS = True           !   [Boolean] default = False
                                ! If true, the Coriolis terms at u-points are bounded by
                                ! the four estimates of (f+rv)v from the four neighboring
                                ! v-points, and similarly at v-points.  This option would
                                ! have no effect on the SADOURNY Coriolis scheme if it
                                ! were possible to use centered difference thickness fluxes.
MASS_WEIGHT_IN_PRESSURE_GRADIENT = True !   [Boolean] default = False
                                ! If true, use mass weighting when interpolation T/S for
                                ! top/bottom integrals in AFV pressure gradient calculation.

! === module MOM_hor_visc ===
LAPLACIAN = True                !   [Boolean] default = False
                                ! If true, use a Laplacian horizontal viscosity.
SMAGORINSKY_KH = True           !   [Boolean] default = False
                                ! If true, use a Smagorinsky nonlinear eddy viscosity.
SMAG_LAP_CONST = 0.01           !   [nondim] default = 0.0
                                ! The nondimensional Laplacian Smagorinsky constant,
                                ! often 0.15.
AH_VEL_SCALE = 0.025            !   [m s-1] default = 0.0
                                ! The velocity scale which is multiplied by the cube of
                                ! the grid spacing to calculate the Laplacian viscosity.
                                ! The final viscosity is the largest of this scaled
                                ! viscosity, the Smagorinsky viscosity and AH.
SMAGORINSKY_AH = True           !   [Boolean] default = False
                                ! If true, use a biharmonic Smagorinsky nonlinear eddy
                                ! viscosity.
SMAG_BI_CONST = 0.06            !   [nondim] default = 0.0
                                ! The nondimensional biharmonic Smagorinsky constant,
                                ! typically 0.015 - 0.06.

! === module MOM_vert_friction ===
CHANNEL_DRAG = True             !   [Boolean] default = False
                                ! If true, the bottom drag is exerted directly on each
                                ! layer proportional to the fraction of the bottom it
                                ! overlies.
U_TRUNC_FILE = "U_velocity_truncations" ! default = ""
                                ! The absolute path to a file into which the accelerations
                                ! leading to zonal velocity truncations are written.
                                ! Undefine this for efficiency if this diagnostic is not
                                ! needed.
V_TRUNC_FILE = "V_velocity_truncations" ! default = ""
                                ! The absolute path to a file into which the accelerations
                                ! leading to meridional velocity truncations are written.
                                ! Undefine this for efficiency if this diagnostic is not
                                ! needed.
HMIX_FIXED = 0.5                !   [m]
                                ! The prescribed depth over which the near-surface
                                ! viscosity and diffusivity are elevated when the bulk
                                ! mixed layer is not used.
KV = 1.0E-04                    !   [m2 s-1]
                                ! The background kinematic viscosity in the interior.
                                ! The molecular value, ~1e-6 m2 s-1, may be used.
HBBL = 10.0                     !   [m]
                                ! The thickness of a bottom boundary layer with a
                                ! viscosity of KVBBL if BOTTOMDRAGLAW is not defined, or
                                ! the thickness over which near-bottom velocities are
                                ! averaged for the drag law if BOTTOMDRAGLAW is defined
                                ! but LINEAR_DRAG is not.
MAXVEL = 6.0                    !   [m s-1] default = 3.0E+08
                                ! The maximum velocity allowed before the velocity
                                ! components are truncated.

! === module MOM_PointAccel ===

! === module MOM_set_visc ===
PRANDTL_TURB = 1.0              !   [nondim] default = 0.0
                                ! The turbulent Prandtl number applied to shear
                                ! instability.
DRAG_BG_VEL = 0.1               !   [m s-1] default = 0.0
                                ! DRAG_BG_VEL is either the assumed bottom velocity (with
                                ! LINEAR_DRAG) or an unresolved  velocity that is
                                ! combined with the resolved velocity to estimate the
                                ! velocity magnitude.  DRAG_BG_VEL is only used when
                                ! BOTTOMDRAGLAW is defined.
BBL_THICK_MIN = 0.1             !   [m] default = 0.0
                                ! The minimum bottom boundary layer thickness that can be
                                ! used with BOTTOMDRAGLAW. This might be
                                ! Kv / (cdrag * drag_bg_vel) to give Kv as the minimum
                                ! near-bottom viscosity.
SMAG_CONST_CHANNEL = 0.15       !   [nondim] default = 0.01
                                ! The nondimensional Laplacian Smagorinsky constant used
                                ! in calculating the channel drag if it is enabled.  The
                                ! default is to use the same value as SMAG_LAP_CONST if
                                ! it is defined, or 0.15 if it is not. The value used is
                                ! also 0.15 if the specified value is negative.

! === module MOM_barotropic ===
BOUND_BT_CORRECTION = True      !   [Boolean] default = False
                                ! If true, the corrective pseudo mass-fluxes into the
                                ! barotropic solver are limited to values that require
                                ! less than 0.1*MAXVEL to be accommodated.
!BT x-halo = 0                  !
                                ! The barotropic x-halo size that is actually used.
!BT y-halo = 0                  !