! Blank file in which we can put "overrides" for parameters
USE_REGRIDDING = True
LIGHTEST_DENSITY = 1034.0
REGRIDDING_COORDINATE_MODE = "RHO"
INTERPOLATION_SCHEME = "PQM_IH4IH3"
BOUNDARY_EXTRAPOLATION = True
REMAPPING_SCHEME = "PQM_IH4IH3"
