! Blank file in which we can put "overrides" for parameters
USE_REGRIDDING = True
REGRIDDING_COORDINATE_MODE = "RHO"
INTERPOLATION_SCHEME = "PLM"
BOUNDARY_EXTRAPOLATION = True
REMAPPING_SCHEME = "PLM"
