! Generated by create_data.m
F_0 = 4.97448e-05
INPUTDIR = "INPUT/Nazca"
