!SYMMETRIC_MEMORY_ = False      !   [Boolean]
                                ! If defined, the velocity point data domain includes
                                ! every face of the thickness points. In other words,
                                ! some arrays are larger than others, depending on where
                                ! they are on the staggered grid.  Also, the starting
                                ! index of the velocity-point arrays is usually 0, not 1.
                                ! This can only be set at compile time.
!STATIC_MEMORY_ = False         !   [Boolean]
                                ! If STATIC_MEMORY_ is defined, the principle variables
                                ! will have sizes that are statically determined at
                                ! compile time.  Otherwise the sizes are not determined
                                ! until run time. The STATIC option is substantially
                                ! faster, but does not allow the PE count to be changed
                                ! at run time.  This can only be set at compile time.
NIHALO = 4                      ! default = 2
                                ! The number of halo points on each side in the
                                ! x-direction.  With STATIC_MEMORY_ this is set as NIHALO_
                                ! in MOM_memory.h at compile time; without STATIC_MEMORY_
                                ! the default is NIHALO_ in MOM_memory.h (if defined) or 2.
NJHALO = 4                      ! default = 2
                                ! The number of halo points on each side in the
                                ! y-direction.  With STATIC_MEMORY_ this is set as NJHALO_
                                ! in MOM_memory.h at compile time; without STATIC_MEMORY_
                                ! the default is NJHALO_ in MOM_memory.h (if defined) or 2.
NIGLOBAL = 1440                 !
                                ! The total number of thickness grid points in the
                                ! x-direction in the physical domain. With STATIC_MEMORY_
                                ! this is set in MOM_memory.h at compile time.
NJGLOBAL = 450                  !
                                ! The total number of thickness grid points in the
                                ! y-direction in the physical domain. With STATIC_MEMORY_
                                ! this is set in MOM_memory.h at compile time.
!NIPROC = 24                    !
                                ! The number of processors in the x-direction. With
                                ! STATIC_MEMORY_ this is set in MOM_memory.h at compile time.
!NJPROC = 12                    !
                                ! The number of processors in the x-direction. With
                                ! STATIC_MEMORY_ this is set in MOM_memory.h at compile time.
!LAYOUT = 24, 12                !
                                ! The processor layout that was acutally used.
IO_LAYOUT = 4, 3                ! default = 0
                                ! The processor layout to be used, or 0,0 to automatically
                                ! set the io_layout to be the same as the layout.

! === module MOM_grid ===
! Parameters providing information about the vertical grid.
NK = 63                         !   [nondim]
                                ! The number of model layers.

! === module MOM_verticalGrid ===
! Parameters providing information about the vertical grid.

! === module MOM ===
THICKNESSDIFFUSE_FIRST = True   !   [Boolean] default = False
                                ! If true, do thickness diffusion before dynamics.
                                ! This is only used if THICKNESSDIFFUSE is true.
DT = 600.0                      !   [s]
                                ! The (baroclinic) dynamics time step.  The time-step that
                                ! is actually used will be an integer fraction of the
                                ! forcing time-step (DT_FORCING in ocean-only mode or the
                                ! coupling timestep in coupled mode.)
DT_THERM = 3600.0               !   [s] default = 600.0
                                ! The thermodynamic and tracer advection time step.
                                ! Ideally DT_THERM should be an integer multiple of DT
                                ! and less than the forcing or coupling time-step.
                                ! By default DT_THERM is set to DT.
MIN_Z_DIAG_INTERVAL = 2.16E+04  !   [s] default = 0.0
                                ! The minimum amount of time in seconds between
                                ! calculations of depth-space diagnostics. Making this
                                ! larger than DT_THERM reduces the  performance penalty
                                ! of regridding to depth online.
DTBT_RESET_PERIOD = -1.0        !   [s] default = 3600.0
                                ! The period between recalculations of DTBT (if DTBT <= 0).
                                ! If DTBT_RESET_PERIOD is negative, DTBT is set based
                                ! only on information available at initialization.  If
                                ! dynamic, DTBT will be set at least every forcing time
                                ! step, and if 0, every dynamics time step.  The default is
                                ! set by DT_THERM.  This is only used if SPLIT is true.
FRAZIL = True                   !   [Boolean] default = False
                                ! If true, water freezes if it gets too cold, and the
                                ! the accumulated heat deficit is returned in the
                                ! surface state.  FRAZIL is only used if
                                ! ENABLE_THERMODYNAMICS is true.
C_P = 3925.0                    !   [J kg-1 K-1] default = 3991.86795711963
                                ! The heat capacity of sea water, approximated as a
                                ! constant. This is only used if ENABLE_THERMODYNAMICS is
                                ! true. The default value is from the TEOS-10 definition
                                ! of conservative temperature.
SAVE_INITIAL_CONDS = True       !   [Boolean] default = False
                                ! If true, write the initial conditions to a file given
                                ! by IC_OUTPUT_FILE.

! === module MOM_tracer_registry ===

! === module MOM_tracer_flow_control ===
INPUTDIR = "INPUT"              ! default = "."
                                ! The directory in which input files are found.
COORD_CONFIG = "file"           !
                                ! This specifies how layers are to be defined:
                                !     file - read coordinate information from the file
                                !       specified by (COORD_FILE).
                                !     linear - linear based on interfaces not layesrs.
                                !     ts_ref - use reference temperature and salinity
                                !     ts_range - use range of temperature and salinity
                                !       (T_REF and S_REF) to determine surface density
                                !       and GINT calculate internal densities.
                                !     gprime - use reference density (RHO_0) for surface
                                !       density and GINT calculate internal densities.
                                !     ts_profile - use temperature and salinity profiles
                                !       (read from COORD_FILE) to set layer densities.
                                !     USER - call a user modified routine.
COORD_FILE = "MESO_025_63L_IC.nc" !
                                ! The file from which the coordinate densities are read.

! === module MOM_grid_init ===
GRID_CONFIG = "mercator"        !
                                ! A character string that determines the method for
                                ! defining the horizontal grid.  Current options are:
                                !     mosaic - read the grid from a mosaic (supergrid)
                                !              file set by GRID_FILE.
                                !     cartesian - use a (flat) Cartesian grid.
                                !     spherical - use a simple spherical grid.
                                !     mercator - use a Mercator spherical grid.
SOUTHLAT = -74.2                !   [degrees]
                                ! The southern latitude of the domain.
LENLAT = 74.2                   !   [degrees]
                                ! The latitudinal length of the domain.
LENLON = 360.0                  !   [degrees]
                                ! The longitudinal length of the domain.
ISOTROPIC = True                !   [Boolean] default = False
                                ! If true, an isotropic grid on a sphere (also known as
                                ! a Mercator grid) is used. With an isotropic grid, the
                                ! meridional extent of the domain (LENLAT), the zonal
                                ! extent (LENLON), and the number of grid points in each
                                ! direction are _not_ independent. In MOM the meridional
                                ! extent is determined to fit the zonal extent and the
                                ! number of grid points, while grid is perfectly isotropic.
TOPO_CONFIG = "file"            !
                                ! This specifies how bathymetry is specified:
                                !     file - read bathymetric information from the file
                                !       specified by (TOPO_FILE).
                                !     flat - flat bottom set to MAXIMUM_DEPTH.
                                !     bowl - an analytically specified bowl-shaped basin
                                !       ranging between MAXIMUM_DEPTH and MINIMUM_DEPTH.
                                !     spoon - a similar shape to 'bowl', but with an vertical
                                !       wall at the southern face.
                                !     halfpipe - a zonally uniform channel with a half-sine
                                !       profile in the meridional direction.
                                !     benchmark - use the benchmark test case topography.
                                !     DOME - use a slope and channel configuration for the
                                !       DOME sill-overflow test case.
                                !     DOME2D - use a shelf and slope configuration for the
                                !       DOME2D gravity current/overflow test case.
                                !     seamount - Gaussian bump for spontaneous motion test case.
                                !     USER - call a user modified routine.
TOPO_FILE = "MESO_025_63L_topog.nc" ! default = "topog.nc"
                                ! The file from which the bathymetry is read.
TOPO_VARNAME = "depth_t"        ! default = "depth"
                                ! The name of the bathymetry variable in TOPO_FILE.
MAXIMUM_DEPTH = 5500.0          !   [m]
                                ! The maximum depth of the ocean.
MINIMUM_DEPTH = 15.0            !   [m] default = 0.0
                                ! If MASKING_DEPTH is unspecified, then anything shallower than
                                ! MINIMUM_DEPTH is assumed to be land and all fluxes are masked out.
                                ! If MASKING_DEPTH is specified, then all depths shallower than
                                ! MINIMUM_DEPTH but depper than MASKING_DEPTH are rounded to MINIMUM_DEPTH.
THICKNESS_CONFIG = "file"       !
                                ! A string that determines how the initial layer
                                ! thicknesses are specified for a new run:
                                !     file - read interface heights from the file specified
                                !     thickness_file - read thicknesses from the file specified
                                !       by (THICKNESS_FILE).
                                !     uniform - uniform thickness layers evenly distributed
                                !       between the surface and MAXIMUM_DEPTH.
                                !     DOME - use a slope and channel configuration for the
                                !       DOME sill-overflow test case.
                                !     benchmark - use the benchmark test case thicknesses.
                                !     search - search a density profile for the interface
                                !       densities. This is not yet implemented.
                                !     circle_obcs - the circle_obcs test case is used.
                                !     DOME2D - 2D version of DOME initialization.
                                !     adjustment2d - TBD AJA.
                                !     sloshing - TBD AJA.
                                !     seamount - TBD AJA.
                                !     rossby_front - a mixed layer front in thermal wind balance.
                                !     USER - call a user modified routine.
THICKNESS_FILE = "MESO_025_63L_IC.nc" !
                                ! The name of the thickness file.
ADJUST_THICKNESS = True         !   [Boolean] default = False
                                ! If true, all mass below the bottom removed if the
                                ! topography is shallower than the thickness input file
                                ! would indicate.
TS_CONFIG = "file"              !
                                ! A string that determines how the initial tempertures
                                ! and salinities are specified for a new run:
                                !     file - read velocities from the file specified
                                !       by (TS_FILE).
                                !     fit - find the temperatures that are consistent with
                                !       the layer densities and salinity S_REF.
                                !     TS_profile - use temperature and salinity profiles
                                !       (read from TS_FILE) to set layer densities.
                                !     benchmark - use the benchmark test case T & S.
                                !     linear - linear in logical layer space.
                                !     DOME2D - 2D DOME initialization.
                                !     adjustment2d - TBD AJA.
                                !     sloshing - TBD AJA.
                                !     seamount - TBD AJA.
                                !     rossby_front - a mixed layer front in thermal wind balance.
                                !     USER - call a user modified routine.
TS_FILE = "MESO_025_63L_IC.nc"  !
                                ! The initial condition file for temperature.
VELOCITY_CONFIG = "file"        ! default = "zero"
                                ! A string that determines how the initial velocities
                                ! are specified for a new run:
                                !     file - read velocities from the file specified
                                !       by (VELOCITY_FILE).
                                !     zero - the fluid is initially at rest.
                                !     uniform - the flow is uniform (determined by
                                !       parameters TORUS_U and TORUS_V).
                                !     rossby_front - a mixed layer front in thermal wind balance.
                                !     USER - call a user modified routine.
VELOCITY_FILE = "MESO_025_63L_IC.nc" !
                                ! The name of the velocity initial condition file.
SPONGE = True                   !   [Boolean] default = False
                                ! If true, sponges may be applied anywhere in the domain.
                                ! The exact location and properties of those sponges are
                                ! specified via SPONGE_CONFIG.
SPONGE_DAMPING_FILE = "MESO_Sponge_025mNG.nc" !
                                ! The name of the file with the sponge damping rates.
SPONGE_STATE_FILE = "MESO_025_63L_IC.nc" ! default = "MESO_Sponge_025mNG.nc"
                                ! The name of the file with the state to damp toward.
!Total sponge columns = 19167   !
                                ! The total number of columns where sponges are applied.

! === module MOM_MEKE ===

! === module MOM_lateral_mixing_coeffs ===
ETA_TOLERANCE = 1.0E-06         !   [m] default = 3.15E-09
                                ! The tolerance for the differences between the
                                ! barotropic and baroclinic estimates of the sea surface
                                ! height due to the fluxes through each face.  The total
                                ! tolerance for SSH is 4 times this value.  The default
                                ! is 0.5*NK*ANGSTROM, and this should not be set less x
                                ! than about 10^-15*MAXIMUM_DEPTH.
ETA_TOLERANCE_AUX = 0.001       !   [m] default = 1.0E-06
                                ! The tolerance for free-surface height discrepancies
                                ! between the barotropic solution and the sum of the
                                ! layer thicknesses when calculating the auxiliary
                                ! corrected velocities. By default, this is the same as
                                ! ETA_TOLERANCE, but can be made larger for efficiency.
BOUND_CORIOLIS = True           !   [Boolean] default = False
                                ! If true, the Coriolis terms at u-points are bounded by
                                ! the four estimates of (f+rv)v from the four neighboring
                                ! v-points, and similarly at v-points.  This option would
                                ! have no effect on the SADOURNY Coriolis scheme if it
                                ! were possible to use centered difference thickness fluxes.

! === module MOM_hor_visc ===
AH_VEL_SCALE = 0.025            !   [m s-1] default = 0.0
                                ! The velocity scale which is multiplied by the cube of
                                ! the grid spacing to calculate the Laplacian viscosity.
                                ! The final viscosity is the largest of this scaled
                                ! viscosity, the Smagorinsky viscosity and AH.
SMAGORINSKY_AH = True           !   [Boolean] default = False
                                ! If true, use a biharmonic Smagorinsky nonlinear eddy
                                ! viscosity.
SMAG_BI_CONST = 0.06            !   [nondim] default = 0.0
                                ! The nondimensional biharmonic Smagorinsky constant,
                                ! typically 0.015 - 0.06.

! === module MOM_vert_friction ===
DYNAMIC_VISCOUS_ML = True       !   [Boolean] default = False
                                ! If true, use a bulk Richardson number criterion to
                                ! determine the mixed layer thickness for viscosity.
U_TRUNC_FILE = "U_velocity_truncations" ! default = ""
                                ! The absolute path to a file into which the accelerations
                                ! leading to zonal velocity truncations are written.
                                ! Undefine this for efficiency if this diagnostic is not
                                ! needed.
V_TRUNC_FILE = "V_velocity_truncations" ! default = ""
                                ! The absolute path to a file into which the accelerations
                                ! leading to meridional velocity truncations are written.
                                ! Undefine this for efficiency if this diagnostic is not
                                ! needed.
HARMONIC_VISC = True            !   [Boolean] default = False
                                ! If true, use the harmonic mean thicknesses for
                                ! calculating the vertical viscosity.
KV = 0.001                      !   [m2 s-1]
                                ! The background kinematic viscosity in the interior.
                                ! The molecular value, ~1e-6 m2 s-1, may be used.
HBBL = 10.0                     !   [m]
                                ! The thickness of a bottom boundary layer with a
                                ! viscosity of KVBBL if BOTTOMDRAGLAW is not defined, or
                                ! the thickness over which near-bottom velocities are
                                ! averaged for the drag law if BOTTOMDRAGLAW is defined
                                ! but LINEAR_DRAG is not.
MAXVEL = 6.0                    !   [m s-1] default = 3.0E+08
                                ! The maximum velocity allowed before the velocity
                                ! components are truncated.
CFL_TRUNCATE = 0.45             !   [nondim] default = 0.5
                                ! The value of the CFL number that will cause velocity
                                ! components to be truncated; instability can occur past 0.5.

! === module MOM_PointAccel ===

! === module MOM_set_visc ===
ML_USE_OMEGA = True             !   [Boolean] default = False
                                ! If true, use the absolute rotation rate instead of the
                                ! vertical component of rotation when setting the decay
                                ! scale for turbulence.
DRAG_BG_VEL = 0.1               !   [m s-1] default = 0.0
                                ! DRAG_BG_VEL is either the assumed bottom velocity (with
                                ! LINEAR_DRAG) or an unresolved  velocity that is
                                ! combined with the resolved velocity to estimate the
                                ! velocity magnitude.  DRAG_BG_VEL is only used when
                                ! BOTTOMDRAGLAW is defined.
BBL_THICK_MIN = 0.1             !   [m] default = 0.0
                                ! The minimum bottom boundary layer thickness that can be
                                ! used with BOTTOMDRAGLAW. This might be
                                ! Kv / (cdrag * drag_bg_vel) to give Kv as the minimum
                                ! near-bottom viscosity.

! === module MOM_barotropic ===
BOUND_BT_CORRECTION = True      !   [Boolean] default = False
                                ! If true, the corrective pseudo mass-fluxes into the
                                ! barotropic solver are limited to values that require
                                ! less than 0.1*MAXVEL to be accommodated.
!BT x-halo = 0                  !
                                ! The barotropic x-halo size that is actually used.
!BT y-halo = 0                  !
                                ! The barotropic y-halo size that is actually used.
BT_PROJECT_VELOCITY = True      !   [Boolean] default = False
                                ! If true, step the barotropic velocity first and project
                                ! out the velocity tendancy by 1+BEBT when calculating the
                                ! transport.  The default (false) is to use a predictor
                                ! continuity step to find the pressure field, and then
                                ! to do a corrector continuity step using a weighted
                                ! average of the old and new velocities, with weights
                                ! of (1-BEBT) and BEBT.
BT_THICK_SCHEME = "FROM_BT_CONT" ! default = "HYBRID"
                                ! A string describing the scheme that is used to set the
                                ! open face areas used for barotropic transport and the
                                ! relative weights of the accelerations. Valid values are:
                                !    ARITHMETIC - arithmetic mean layer thicknesses
                                !    HARMONIC - harmonic mean layer thicknesses
                                !    HYBRID (the default) - use arithmetic means for
                                !       layers above the shallowest bottom, the harmonic
                                !       mean for layers below, and a weighted average for
                                !       layers that straddle that depth
                                !    FROM_BT_CONT - use the average thicknesses kept
                                !       in the h_u and h_v fields of the BT_cont_type
BEBT = 0.2                      !   [nondim] default = 0.1
                                ! BEBT determines whether the barotropic time stepping
                                ! uses the forward-backward time-stepping scheme or a
                                ! backward Euler scheme. BEBT is valid in the range from
                                ! 0 (for a forward-backward treatment of nonrotating
                                ! gravity waves) to 1 (for a backward Euler treatment).
                                ! In practice, BEBT must be greater than about 0.05.
DTBT = -0.9                     !   [s or nondim] default = -0.98
                                ! The barotropic time step, in s. DTBT is only used with
                                ! the split explicit time stepping. To set the time step
                                ! automatically based the maximum stable value use 0, or
                                ! a negative value gives the fraction of the stable value.
                                ! Setting DTBT to 0 is the same as setting it to -0.98.
                                ! The value of DTBT that will actually be used is an
                                ! integer fraction of DT, rounding down.

! === module MOM_thickness_diffuse ===

! === module MOM_mixed_layer_restrat ===
MIXEDLAYER_RESTRAT = True       !   [Boolean] default = False
                                ! If true, a density-gradient dependent re-stratifying
                                ! flow is imposed in the mixed layer.
                                ! This is only used if BULKMIXEDLAYER is true.
FOX_KEMPER_ML_RESTRAT_COEF = 5.0 !   [nondim] default = 0.0
                                ! A nondimensional coefficient that is proportional to
                                ! the ratio of the deformation radius to the dominant
                                ! lengthscale of the submesoscale mixed layer
                                ! instabilities, times the minimum of the ratio of the
                                ! mesoscale eddy kinetic energy to the large-scale
                                ! geostrophic kinetic energy or 1 plus the square of the
                                ! grid spacing over the deformation radius, as detailed
                                ! by Fox-Kemper et al. (2010)
Z_OUTPUT_GRID_FILE = "OM3_zgrid.nc" ! default = ""
                                ! The file that specifies the vertical grid for
                                ! depth-space diagnostics, or blank to disable
                                ! depth-space output.
!NK_ZSPACE (from file) = -1     !   [nondim]
                                ! The number of depth-space levels.  This is determined
                                ! from the size of the variable zw in the output grid file.

! === module MOM_diabatic_driver ===
! The following parameters are used for diabatic processes.
RECLAIM_FRAZIL = False          !   [Boolean] default = True
                                ! If true, try to use any frazil heat deficit to cool any
                                ! overlying layers down to the freezing point, thereby
                                ! avoiding the creation of thin ice when the SST is above
                                ! the freezing point.
KD_MIN_TR = 2.0E-06             !   [m2 s-1] default = 2.0E-06
                                ! A minimal diffusivity that should always be applied to
                                ! tracers, especially in massless layers near the bottom.
                                ! The default is 0.1*KD.
ML_RADIATION = True             !   [Boolean] default = False
                                ! If true, allow a fraction of TKE available from wind
                                ! work to penetrate below the base of the mixed layer
                                ! with a vertical decay scale determined by the minimum
                                ! of: (1) The depth of the mixed layer, (2) an Ekman
                                ! length scale.
ML_RAD_COEFF = 0.1              !   [nondim] default = 0.2
                                ! The coefficient which scales MSTAR*USTAR^3 to obtain
                                ! the energy available for mixing below the base of the
                                ! mixed layer. This is only used if ML_RADIATION is true.
TKE_DECAY = 10.0                !   [nondim] default = 2.5
                                ! The ratio of the natural Ekman depth to the TKE decay scale.
BBL_MIXING_AS_MAX = False       !   [Boolean] default = True
                                ! If true, take the maximum of the diffusivity from the
                                ! BBL mixing and the other diffusivities. Otherwise,
                                ! diffusiviy from the BBL_mixing is simply added.
KD = 2.0E-05                    !   [m2 s-1]
                                ! The background diapycnal diffusivity of density in the