! Generated by create_data.m
F_0 = 0.000140488
INPUTDIR = "INPUT/Norwegian"
