&MOM_input_nml
    output_directory = './'
    input_filename = 'n'
    restart_input_dir = './'
    restart_output_dir = './RESTART'
    parameter_filename = 'MOM_input'
/

&diag_manager_nml
/

&fms_nml
    domains_stack_size = 710000
    stack_size = 0
/

&ocean_domains_nml
/
