! Blank file in which we can put "overrides" for parameters
#override NK = 50
#override USE_REGRIDDING = True
#override BULKMIXEDLAYER = False
#override MIXEDLAYER_RESTRAT = False
#override COORD_FILE = "Layer_coord50.nc"
REGRIDDING_COORDINATE_MODE = "Z*"
ALE_COORDINATE_CONFIG = "FILE:INPUT/vgrid.nc,dz"
HMIX_FIXED = 0.5
CFL_TRUNCATE_RAMP_TIME = 7200.
Z_INIT_ALE_REMAPPING = True
